110
comment
C -60.51612 14.70039 7.95298
C -58.72015 13.19986 8.80277
C -61.72470 13.77551 7.97614
C -63.28244 11.38809 6.37399
C -61.81973 9.54463 5.55867
C -61.52033 8.71497 6.80399
C -60.87257 9.51138 7.93309
C -60.86817 8.72078 9.23831
C -59.81353 9.05976 11.44622
C -62.66006 8.75983 4.56137
C -56.31994 17.19157 -9.91107
C -53.90859 19.96332 -1.77866
C -54.60264 19.32861 -0.61642
C -55.94541 19.32542 -0.45813
C -55.14534 18.22819 1.33852
C -54.95378 17.51847 2.53007
C -53.67948 17.07648 2.90544
C -52.60121 17.38375 2.06699
C -52.77325 18.16582 0.91855
C -54.04824 18.59522 0.51664
C -57.14864 16.30846 5.81164
C -56.09406 15.39154 5.89633
C -55.09825 15.59434 6.85927
C -55.01212 16.75804 7.63286
C -48.54559 19.29046 -6.93540
C -49.94095 18.68187 -7.04204
C -50.26925 17.72052 -5.92481
C -50.70006 18.20727 -4.68484
C -50.85186 17.36846 -3.57426
C -50.58161 15.99460 -3.73160
C -50.09300 15.49791 -4.95629
C -49.88016 16.37925 -6.02305
C -47.98561 19.46901 -8.33941
C -47.43799 17.03358 -8.54405
C -46.26197 16.41092 -9.29106
C -46.42057 17.07570 -10.65547
C -46.84333 18.49313 -10.28005
C -47.65899 19.12355 -11.39986
C -53.91469 14.27125 -14.24438
C -53.01589 13.58999 -13.21638
C -51.91456 14.39347 -12.53067
C -50.24403 16.04120 -13.46774
C -56.22991 10.99266 -11.21488
C -56.48250 11.46967 -8.83993
C -56.20438 12.95992 -8.66503
C -56.06719 13.33608 -7.19248
C -55.08312 13.57272 -9.49928
C -53.67844 13.01642 -9.28455
C -57.46385 11.00706 -7.77243
C -57.80026 9.91342 -5.61374
C -57.19793 8.69530 -4.91936
C -57.39204 7.34297 -5.54835
C -57.84454 11.13252 -4.70356
C -59.19793 12.38907 -3.02606
C -59.83288 13.58177 -3.73531
C -60.11767 11.85410 -1.93774
C -61.49434 12.63529 -0.01971
C -60.80573 12.86504 1.32258
C -59.84992 11.77030 1.73259
C -60.26700 10.61711 2.40803
C -59.29630 9.64553 2.67968
C -57.93948 9.88708 2.38645
C -57.56277 11.00794 1.62022
C -58.52626 11.98074 1.32805
C -62.57079 13.68383 -0.26133
C -60.83649 18.39014 0.53659
C -59.93598 17.31846 -0.07114
C -59.29715 16.33902 0.87474
C -57.63461 15.19970 1.69280
C -59.60328 16.10049 2.18968
C -58.52020 19.24194 -3.98268
C -56.62360 18.01616 -4.31776
C -55.57185 17.09743 -4.21844
C -54.35090 17.37075 -4.84664
C -54.18199 18.60061 -5.49391
C -55.19275 19.56934 -5.49043
C -56.43328 19.30058 -4.89026
C -64.06791 16.46787 -4.26795
C -59.06259 12.25586 9.51133
C -57.81037 13.07531 7.83374
C -62.26982 13.62190 6.76718
C -62.17340 10.93103 5.78793
C -60.51550 9.52896 10.40571
C -59.28244 9.89485 12.34963
C -62.76750 7.53560 4.57692
C -63.40869 9.51439 3.75356
C -61.75285 10.17033 -4.80165
C -56.28282 18.73552 0.74413
C -49.17348 17.37632 0.17803
C -50.74167 15.16834 -2.65820
C -47.44026 18.42117 -8.96160
C -48.85931 18.90088 -11.54206
C -51.07299 14.99303 -13.56636
C -50.32537 16.77572 -12.34997
C -49.50150 16.40650 -14.52166
C -55.08464 10.59156 -11.01988
C -57.01618 11.27051 -10.17231
C -58.63141 11.38890 -7.81160
C -57.02059 10.20806 -6.79907
C -57.47409 6.91317 -6.87192
C -56.78496 11.62226 -4.31892
C -58.98231 11.39197 -4.05511
C -59.66728 14.75881 -2.97687
C -60.64587 10.74469 -1.96389
C -60.46675 12.77092 -1.03229
C -56.97569 9.04105 2.85107
C -62.32895 14.77623 -0.76993
C -58.05069 15.79331 0.57176
C -58.54095 15.36072 2.67069
C -57.87522 18.04572 -3.73721
