110
comment
C -61.01342 15.48920 7.89534
C -59.08315 14.22293 9.02861
C -62.25207 14.60727 7.96279
C -63.47353 11.69282 6.56390
C -62.07197 9.88080 5.57613
C -61.51839 9.03156 6.71681
C -60.28940 9.64455 7.38205
C -59.78200 8.78855 8.53899
C -58.85785 10.13790 10.47004
C -63.07529 9.18360 4.66842
C -56.02750 17.71494 -8.62088
C -53.66981 20.13951 -1.46237
C -54.40619 19.38791 -0.40023
C -55.70624 19.03380 -0.51198
C -55.07789 18.26493 1.53931
C -54.97604 17.65172 2.79380
C -53.72122 17.65241 3.41470
C -52.60235 18.16883 2.75026
C -52.69310 18.71802 1.46564
C -53.95267 18.78545 0.84888
C -57.92185 16.86325 5.97095
C -56.86214 15.98355 5.71960
C -55.64766 16.13761 6.39882
C -55.41892 17.20794 7.27183
C -48.70211 19.07923 -6.11678
C -50.16331 18.65389 -6.22954
C -50.68661 17.69129 -5.19046
C -50.77307 18.09862 -3.85381
C -51.17889 17.19450 -2.86492
C -51.45195 15.87120 -3.26443
C -51.34307 15.41388 -4.59270
C -50.97532 16.36887 -5.54809
C -48.09608 19.11485 -7.51253
C -47.89760 16.64382 -7.62699
C -46.92631 15.84979 -8.49579
C -46.98891 16.54459 -9.85300
C -47.11485 18.00453 -9.42708
C -47.85945 18.69019 -10.56374
C -53.38685 14.26596 -13.99984
C -52.55435 13.16350 -13.35158
C -51.26201 13.70041 -12.74310
C -49.43679 15.08011 -13.70587
C -55.97016 11.21065 -11.17718
C -56.24176 12.01004 -8.87762
C -56.20172 13.52671 -8.71368
C -55.79003 14.03757 -7.33591
C -55.29173 14.27438 -9.68408
C -53.79047 14.10386 -9.47001
C -57.20396 11.41337 -7.86038
C -57.36254 10.21455 -5.66528
C -56.46358 9.10859 -5.11985
C -56.70338 7.67743 -5.51537
C -57.44458 11.29451 -4.59590
C -58.90459 12.57995 -3.10165
C -59.25127 13.85908 -3.85822
C -60.04674 12.26678 -2.14560
C -61.63008 13.08951 -0.43633
C -61.02504 13.19835 0.96041
C -60.01264 12.12152 1.26969
C -60.49172 10.92662 1.81995
C -59.56736 9.97300 2.26291
C -58.19689 10.09571 1.95943
C -57.74639 11.25534 1.29790
C -58.65082 12.27701 0.98445
C -62.74927 14.10796 -0.60009
C -61.08609 18.66455 0.61393
C -60.09935 17.53928 0.31575
C -59.46653 16.79095 1.45665
C -58.03211 15.44700 2.39528
C -60.00316 16.40222 2.65691
C -59.25274 19.16919 -4.61936
C -57.12234 18.44732 -4.30788
C -55.99346 17.68985 -3.97326
C -54.75442 18.17145 -4.41245
C -54.65792 19.37797 -5.11603
C -55.79648 20.12876 -5.43233
C -57.05922 19.67153 -5.02272
C -62.47346 16.42873 -4.91612
C -59.34636 13.02535 8.94511
C -57.83882 14.69989 9.10861
C -62.57346 14.03436 6.80055
C -62.37512 11.24781 5.94920
C -58.79815 9.61607 9.23727
C -57.79788 10.74160 11.02464
C -63.14259 7.95877 4.59204
C -63.75055 9.95384 3.81218
C -61.49764 11.62995 -4.63573
C -56.12359 18.41877 0.65197
C -48.40870 18.26594 0.29418
C -51.83720 14.99027 -2.29694
C -47.84594 17.98375 -8.17616
C -49.06553 18.54692 -10.75175
C -50.30762 14.06518 -13.79020
C -49.61033 16.06758 -12.81686
C -48.53771 15.26960 -14.68122
C -54.81311 10.81583 -11.05102
C -56.75535 11.57860 -10.16207
C -58.39829 11.70222 -7.88608
C -56.68468 10.73051 -6.83745
C -56.91626 7.16199 -6.79299
C -56.45800 11.96287 -4.29513
C -58.65311 11.55006 -4.08946
C -59.04375 14.97604 -3.02310
C -60.30674 11.10025 -1.85903
C -60.59491 13.25624 -1.43651
C -57.30183 9.10868 2.25127
C -62.51281 15.25109 -0.98467
C -58.22696 16.17452 1.29302
C -59.07230 15.56295 3.23683
C -58.45696 18.17292 -4.08893
