110
comment
C -61.11545 14.96190 7.74949
C -59.33946 13.57599 8.81118
C -62.27846 13.98070 7.78429
C -63.84211 11.27152 6.39667
C -62.54991 9.29605 5.64051
C -62.16008 8.51296 6.89098
C -60.99086 9.08117 7.69023
C -60.77876 8.34100 9.00774
C -59.24602 8.60490 10.97495
C -63.63909 8.73432 4.73777
C -56.15740 17.12305 -10.58176
C -53.73167 19.80472 -1.36992
C -54.38747 19.19770 -0.17130
C -55.69727 18.86572 -0.12391
C -54.83850 18.12282 1.83160
C -54.66641 17.52379 3.08527
C -53.35250 17.51485 3.56862
C -52.27849 17.94308 2.77920
C -52.47116 18.51184 1.51449
C -53.78335 18.62864 1.02875
C -58.04578 16.41310 6.42431
C -56.92862 15.65567 6.05247
C -55.69561 15.90109 6.66848
C -55.55704 17.04955 7.45707
C -48.66328 18.90299 -6.49670
C -50.01392 18.20393 -6.62269
C -50.34415 17.36351 -5.41239
C -51.05764 17.92921 -4.34892
C -51.34068 17.13076 -3.23429
C -51.04187 15.75380 -3.23778
C -50.30313 15.19310 -4.29854
C -49.94860 16.02119 -5.37028
C -48.07627 19.16866 -7.87569
C -47.46294 16.78392 -8.21314
C -46.39455 16.14394 -9.09501
C -46.49681 16.97415 -10.37133
C -46.94220 18.35196 -9.88960
C -47.82120 19.01919 -10.93783
C -53.35591 14.19389 -14.23964
C -52.57853 13.37352 -13.21427
C -51.73763 14.29755 -12.33806
C -50.00258 16.03637 -12.95051
C -55.61924 11.42619 -11.06936
C -56.07675 12.14263 -8.69524
C -56.00363 13.65055 -8.47241
C -55.92340 14.10329 -7.01730
C -54.82046 14.26170 -9.21761
C -53.42549 13.82885 -8.77556
C -57.09754 11.51931 -7.75389
C -57.29218 10.32476 -5.57741
C -56.71046 9.05687 -4.95863
C -56.65731 7.95502 -5.98100
C -57.38601 11.46085 -4.56885
C -58.79758 12.61650 -2.90189
C -58.99087 13.92044 -3.67076
C -59.96525 12.22618 -2.00698
C -61.60431 12.90616 -0.29183
C -60.91182 12.72440 1.05585
C -59.97819 11.55689 1.26906
C -60.42452 10.39931 1.91782
C -59.53218 9.32057 1.92600
C -58.21092 9.42153 1.44699
C -57.76706 10.65068 0.92018
C -58.64089 11.74432 0.89950
C -62.64282 13.99715 -0.07291
C -60.94960 18.71290 0.82294
C -60.00017 17.66608 0.24713
C -59.37752 16.72300 1.23961
C -57.94459 15.34900 2.11553
C -59.77077 16.51333 2.53617
C -58.48456 19.10383 -3.85250
C -56.62670 17.94175 -4.39808
C -55.62737 16.96595 -4.49428
C -54.48673 17.27718 -5.24401
C -54.35725 18.56275 -5.78306
C -55.32154 19.55337 -5.56203
C -56.52686 19.26435 -4.90246
C -63.01888 16.83730 -3.64538
C -59.78432 12.51339 9.23950
C -58.10929 13.62861 8.29529
C -62.60098 13.48265 6.58838
C -62.72384 10.70320 5.93963
C -59.76516 9.02311 9.81254
C -58.35091 9.37281 11.61109
C -64.29004 7.76317 5.11694
C -63.89655 9.48821 3.66639
C -60.73241 9.20962 -4.68436
C -55.96248 18.15745 1.03162
C -48.82633 17.80950 0.44535
C -51.50795 15.03993 -2.17305
C -47.63587 18.16033 -8.63187
C -49.04309 18.88987 -10.96595
C -50.54152 14.81078 -13.00612
C -50.59866 17.06546 -12.33304
C -48.79313 16.22052 -13.49727
C -54.42083 11.17872 -10.95471
C -56.40984 11.81926 -10.06793
C -58.29235 11.80724 -7.74430
C -56.62681 10.70353 -6.80768
C -55.84715 7.93691 -7.11529
C -56.41514 12.19076 -4.38130
C -58.49936 11.55103 -3.83761
C -59.12869 15.06615 -2.86052
C -60.15936 11.02130 -1.86160
C -60.62531 13.16713 -1.32779
C -57.41484 8.31392 1.45093
C -62.42128 15.19299 -0.25023
C -58.30034 15.88790 0.94708
C -58.81998 15.67298 3.08113
C -57.84796 17.88193 -3.75822
