110
comment
C -60.73686 15.58581 7.31096
C -58.61254 14.45104 8.23936
C -61.88955 14.63009 7.58394
C -63.37067 11.94943 6.24666
C -61.73651 10.22916 5.49856
C -61.44845 9.52939 6.82374
C -60.44578 10.26025 7.71211
C -60.27751 9.60872 9.08174
C -58.81286 10.25041 11.07409
C -62.52871 9.33833 4.55225
C -55.54085 18.09759 -9.13303
C -53.76870 20.06816 -1.46679
C -54.49437 19.27208 -0.43010
C -55.77118 18.84812 -0.56407
C -55.05334 18.01271 1.45847
C -54.84120 17.26977 2.62599
C -53.61597 17.34107 3.29960
C -52.63685 18.21875 2.81894
C -52.84446 18.90356 1.61561
C -54.02167 18.78173 0.86022
C -57.92019 17.14212 5.81230
C -57.01239 16.07662 5.78721
C -55.86727 16.12439 6.59125
C -55.61057 17.21013 7.43702
C -48.80194 19.39767 -6.26666
C -50.23144 18.86351 -6.27086
C -50.62074 18.06157 -5.05202
C -51.00858 18.69725 -3.86645
C -51.39570 17.93774 -2.75590
C -51.40787 16.53493 -2.88738
C -50.97679 15.85808 -4.04556
C -50.59843 16.66368 -5.12624
C -48.22012 19.38972 -7.67313
C -47.69329 16.95922 -7.53636
C -46.89388 16.00843 -8.42274
C -47.08576 16.66630 -9.78623
C -47.22599 18.16307 -9.52389
C -47.95760 18.85023 -10.66813
C -54.04164 14.31999 -14.14663
C -53.25331 13.42476 -13.19489
C -52.06420 14.11898 -12.53704
C -50.35636 15.63237 -13.48878
C -56.00776 11.34931 -11.04658
C -56.28124 12.25444 -8.73956
C -56.16475 13.77185 -8.62682
C -56.06464 14.32415 -7.20778
C -54.97570 14.26584 -9.44589
C -53.58345 13.94744 -8.90835
C -57.15465 11.51807 -7.73380
C -57.20554 10.55061 -5.53145
C -56.49370 9.34094 -4.93254
C -56.69639 8.03450 -5.64960
C -57.36038 11.60757 -4.44724
C -58.74410 13.09731 -3.00879
C -58.90662 14.47706 -3.64023
C -59.91582 12.63711 -2.15319
C -61.58866 13.19174 -0.37200
C -60.92271 13.09182 0.99745
C -59.75149 12.14880 1.13626
C -59.93069 10.90144 1.74627
C -58.87358 9.98365 1.76320
C -57.61477 10.33077 1.23375
C -57.43854 11.61369 0.67837
C -58.47999 12.54887 0.70802
C -62.81744 14.08831 -0.31614
C -61.26214 18.87773 0.42745
C -60.27211 17.91243 -0.21810
C -59.59306 16.96553 0.73285
C -58.05485 15.77683 1.67016
C -60.12918 16.51187 1.91031
C -59.27428 19.27345 -3.80193
C -57.33780 18.09977 -3.95022
C -56.29073 17.17044 -3.94137
C -55.05881 17.47689 -4.53174
C -54.87177 18.72889 -5.12971
C -55.91919 19.65748 -5.15628
C -57.15540 19.37005 -4.55587
C -63.21012 15.91723 -4.19740
C -58.65706 13.53819 7.41766
C -57.62226 14.43821 9.13460
C -62.52848 14.31141 6.45587
C -62.18431 11.58300 5.75610
C -59.08830 10.11095 9.77014
C -57.67043 10.73784 11.57695
C -62.48100 8.11038 4.53169
C -63.21063 10.00644 3.61899
C -61.63792 11.79323 -4.80754
C -56.12482 18.21977 0.61376
C -49.61189 17.94719 0.53902
C -51.74440 15.76508 -1.81286
C -47.85082 18.22817 -8.21807
C -49.17539 18.74970 -10.80037
C -51.03542 14.47745 -13.51351
C -50.62986 16.65578 -12.66816
C -49.32397 15.80004 -14.32642
C -54.84387 10.97922 -10.90910
C -56.72028 11.93947 -10.08410
C -58.38306 11.53111 -7.77092
C -56.47931 11.04679 -6.68301
C -56.50970 7.94896 -7.02840
C -56.34173 11.93258 -3.84124
C -58.53092 12.11096 -4.04872
C -58.93815 15.45392 -2.62393
C -60.19307 11.44168 -2.08472
C -60.61357 13.49157 -1.40116
C -56.56237 9.46569 1.30199
C -62.72742 15.20424 -0.82331
C -58.31596 16.44048 0.54161
C -59.12451 15.75621 2.48197
C -58.64039 18.08561 -3.49466
