110
comment
C -60.64765 14.72543 7.54903
C -58.87913 13.55101 8.89107
C -61.79099 13.72088 7.53275
C -63.71084 11.43717 6.37739
C -62.26447 9.44246 6.04279
C -62.36454 8.84738 7.44449
C -61.35922 9.47774 8.40405
C -61.34296 8.71856 9.72771
C -59.40783 8.76500 11.41552
C -62.95012 8.74495 4.87648
C -56.22512 17.45877 -10.33067
C -53.70596 19.84648 -1.63167
C -54.41236 19.15055 -0.51279
C -55.74383 18.91594 -0.49938
C -55.04094 18.12301 1.53097
C -54.89392 17.62482 2.83112
C -53.62633 17.66965 3.42381
C -52.51936 18.13444 2.70361
C -52.70762 18.66120 1.42017
C -53.96183 18.66967 0.78904
C -57.44243 16.26208 6.09496
C -56.27923 15.56560 5.74579
C -55.06609 15.87752 6.37112
C -54.97324 17.03388 7.15485
C -48.57418 18.98243 -6.68950
C -49.89930 18.23018 -6.77349
C -50.21111 17.33152 -5.60070
C -50.68093 17.91132 -4.41612
C -51.07475 17.07884 -3.36163
C -50.81540 15.69447 -3.40181
C -50.33333 15.12722 -4.59814
C -50.03137 15.94612 -5.69280
C -48.01037 19.32974 -8.06002
C -47.63147 16.92332 -8.53467
C -46.52931 16.32151 -9.40173
C -46.61541 17.15162 -10.67930
C -46.96374 18.53542 -10.13844
C -47.81545 19.27671 -11.15910
C -53.71008 14.25946 -14.21543
C -52.83306 13.43780 -13.27502
C -51.86135 14.33567 -12.51457
C -50.06601 15.92293 -13.23518
C -55.89086 11.28774 -11.17552
C -56.14263 11.96078 -8.82374
C -55.89741 13.42609 -8.47514
C -55.84926 13.75749 -6.98632
C -54.67176 13.98104 -9.19524
C -53.27824 13.43916 -8.89002
C -57.17632 11.35364 -7.88594
C -57.47511 10.23817 -5.71477
C -56.73424 9.08314 -5.04712
C -56.93596 7.74882 -5.71117
C -57.59402 11.38154 -4.71720
C -59.24578 12.60929 -3.29459
C -59.56340 13.98462 -3.87454
C -60.36469 12.09992 -2.39722
C -61.60622 12.63965 -0.33425
C -60.94078 12.68401 1.03835
C -59.95998 11.57686 1.34250
C -60.35778 10.42234 2.02730
C -59.43295 9.43951 2.39990
C -58.05876 9.57632 2.12010
C -57.62517 10.76858 1.50699
C -58.58224 11.72243 1.14056
C -62.78234 13.60533 -0.36274
C -60.86831 18.63364 0.53048
C -60.15779 17.48705 -0.18313
C -59.50691 16.50749 0.75437
C -57.91260 15.36715 1.73761
C -60.00897 16.00865 1.92858
C -58.20423 19.37300 -3.44536
C -56.32007 18.14588 -3.86069
C -55.27740 17.21662 -3.95829
C -54.20668 17.46563 -4.82525
C -54.24385 18.59436 -5.65271
C -55.28276 19.52539 -5.53462
C -56.29850 19.37030 -4.57771
C -63.53958 16.95007 -4.16927
C -59.27164 12.44006 9.24062
C -57.65684 13.66003 8.36535
C -62.54544 13.68732 6.43183
C -62.53444 10.86450 6.11169
C -60.36897 9.30103 10.65100
C -58.56284 9.60192 12.03291
C -62.84460 7.52548 4.76507
C -63.66157 9.42433 3.97382
C -61.46270 9.55334 -4.94347
C -56.11041 18.28733 0.67438
C -48.98167 17.27906 0.55241
C -51.05687 14.93532 -2.29460
C -47.60858 18.33609 -8.85614
C -49.03969 19.17083 -11.13498
C -50.74389 14.77291 -13.35152
C -50.31716 16.87711 -12.32850
C -49.11707 16.20932 -14.13690
C -54.73001 10.89723 -11.07336
C -56.60951 11.82903 -10.18916
C -58.39105 11.50468 -7.99610
C -56.68058 10.68922 -6.83947
C -56.84983 7.47468 -7.07524
C -56.54854 11.72264 -4.16846
C -58.83585 11.68311 -4.33087
C -58.93316 15.01493 -3.14695
C -60.89205 11.00423 -2.57589
C -60.64080 12.91749 -1.37852
C -57.20392 8.61603 2.57581
C -62.70355 14.57559 -1.11302
C -58.16286 16.14484 0.68176
C -58.99934 15.27631 2.52145
C -57.51714 18.20555 -3.17659
