110
comment
C -60.59747 15.57868 7.14452
C -58.71963 14.30331 8.35546
C -61.73728 14.57027 7.16514
C -63.25179 11.99976 6.19097
C -61.56779 10.27675 5.46112
C -61.20079 9.57999 6.76819
C -60.19940 10.32118 7.64938
C -60.08134 9.54877 8.96015
C -59.10824 10.17175 11.10948
C -62.48839 9.42256 4.60136
C -55.32246 17.93996 -9.26074
C -54.03692 20.14892 -1.45181
C -54.90500 19.55854 -0.38749
C -56.25668 19.53108 -0.39211
C -55.59814 18.45123 1.47776
C -55.54191 17.73916 2.68179
C -54.28805 17.32938 3.15070
C -53.11011 17.73759 2.51369
C -53.17925 18.49219 1.33652
C -54.42171 18.87993 0.81019
C -57.66098 17.06206 5.70059
C -56.71642 16.02910 5.67198
C -55.62258 16.14074 6.53863
C -55.48171 17.25135 7.37929
C -49.05918 19.18885 -6.27712
C -50.48292 18.65875 -6.42022
C -50.86998 17.95846 -5.13965
C -51.22034 18.68849 -3.99760
C -51.41961 18.02197 -2.78266
C -51.34998 16.61775 -2.68978
C -51.06061 15.90035 -3.86746
C -50.78991 16.56243 -5.07094
C -48.29063 19.26237 -7.58863
C -48.30183 16.78886 -7.84921
C -47.18834 15.93047 -8.44246
C -46.95020 16.62926 -9.77799
C -47.24679 18.09888 -9.49375
C -47.89155 18.83771 -10.65764
C -53.73986 14.20048 -14.28060
C -52.93133 13.37772 -13.28159
C -51.98941 14.31166 -12.52712
C -50.05967 15.80317 -13.15666
C -56.14921 11.24112 -11.05570
C -56.52928 12.04057 -8.71331
C -56.44195 13.55897 -8.58919
C -56.19962 13.97053 -7.13986
C -55.40098 14.30211 -9.42151
C -53.94728 14.03942 -9.03888
C -57.47265 11.29082 -7.78364
C -57.47975 10.51867 -5.43563
C -56.64120 9.36054 -4.90247
C -56.63096 8.16940 -5.82069
C -57.46975 11.66983 -4.44002
C -58.88639 13.12899 -2.97176
C -59.24066 14.43309 -3.68062
C -59.96342 12.59620 -2.03763
C -61.52728 13.08603 -0.19126
C -60.85050 12.88094 1.16097
C -59.68949 11.92160 1.26934
C -59.84001 10.62722 1.78104
C -58.78074 9.71966 1.90034
C -57.53051 10.12160 1.38987
C -57.31975 11.42952 0.91013
C -58.41944 12.29009 0.80988
C -62.55229 14.20339 -0.05986
C -61.10992 18.89283 0.51829
C -60.15114 17.82107 0.00767
C -59.61147 16.87041 1.04062
C -58.21848 15.51955 2.06928
C -60.20082 16.49951 2.22160
C -59.10975 19.72845 -3.95934
C -57.13087 18.58997 -3.91015
C -56.10939 17.66267 -3.67185
C -54.84344 17.88624 -4.22635
C -54.68949 19.01334 -5.04241
C -55.69972 19.96974 -5.19995
C -56.99163 19.76838 -4.68838
C -63.57410 16.36909 -3.66066
C -58.61971 13.52778 7.40729
C -57.96094 14.12025 9.43856
C -62.50155 14.37990 6.08724
C -62.06015 11.61266 5.73022
C -59.05906 10.21049 9.77095
C -58.27047 10.88965 11.86998
C -62.46994 8.19627 4.68024
C -63.33091 10.05274 3.77969
C -61.40964 11.76023 -4.66995
C -56.68177 18.95966 0.79106
C -49.75098 17.85790 0.71922
C -51.60972 16.00082 -1.50131
C -48.02083 18.14660 -8.26986
C -49.10137 18.73989 -10.85021
C -50.85097 14.73765 -13.34125
C -50.14962 16.43983 -11.98101
C -49.07812 16.12042 -14.01193
C -55.06772 10.69886 -10.83954
C -56.90051 11.77089 -10.08771
C -58.69134 11.22993 -7.93016
C -56.83675 10.89890 -6.67722
C -55.53047 7.83261 -6.60729
C -56.39145 12.12938 -4.07050
C -58.63867 12.08962 -3.95050
C -58.98980 15.55950 -2.87046
C -60.28961 11.41142 -2.02002
C -60.50979 13.44081 -1.15997
C -56.55944 9.17891 1.22005
C -62.24979 15.38084 -0.24013
C -58.37729 16.22878 0.94946
C -59.29136 15.68021 2.86097
C -58.47752 18.55111 -3.61098
