110
comment
C -60.81714 15.58354 7.96580
C -59.30355 14.01505 9.19289
C -62.04712 14.69299 8.06935
C -63.41375 11.66081 6.73265
C -62.15704 9.94162 5.47680
C -61.71668 9.06520 6.64591
C -60.43108 9.50839 7.33840
C -59.95770 8.48492 8.36657
C -58.96755 9.95697 10.17283
C -63.26070 9.26972 4.67228
C -55.98927 18.00148 -8.60496
C -53.81979 20.12640 -1.68050
C -54.45700 19.36015 -0.56599
C -55.70388 18.83763 -0.58265
C -54.89969 18.08533 1.38708
C -54.66131 17.53505 2.65220
C -53.39884 17.69556 3.23573
C -52.44926 18.49431 2.58736
C -52.70236 19.08620 1.34409
C -53.94261 18.88983 0.71585
C -57.64233 16.66084 6.43332
C -56.57296 15.75742 6.41523
C -55.43603 16.00696 7.19316
C -55.33418 17.15899 7.98214
C -48.99689 19.31337 -6.33125
C -50.45285 18.89031 -6.50452
C -50.81030 17.87375 -5.44668
C -51.01770 18.30881 -4.13223
C -51.34740 17.37129 -3.14613
C -51.50517 16.00238 -3.44031
C -51.37170 15.61834 -4.78940
C -51.00780 16.53026 -5.78741
C -48.21818 19.24394 -7.63723
C -48.01870 16.77172 -7.57514
C -47.11906 15.84934 -8.39281
C -47.10238 16.46806 -9.78766
C -47.27199 17.95711 -9.49999
C -47.96752 18.65572 -10.65970
C -53.28457 14.14987 -14.25195
C -52.54403 13.24669 -13.26982
C -51.24410 13.81801 -12.71081
C -49.58016 15.27467 -13.83498
C -55.64441 11.00384 -10.96654
C -55.99327 11.88678 -8.65538
C -56.17821 13.39833 -8.55640
C -56.06784 14.05682 -7.18419
C -55.23489 14.11132 -9.52103
C -53.73127 13.97240 -9.30075
C -56.86322 11.22672 -7.59509
C -56.99478 10.24250 -5.28313
C -56.21328 9.17145 -4.52757
C -56.40700 7.81850 -5.15534
C -57.19085 11.32940 -4.23581
C -58.75945 12.72470 -2.89146
C -59.00903 14.00847 -3.67784
C -59.96697 12.39911 -2.02401
C -61.63138 13.01008 -0.31937
C -61.05284 13.01125 1.09274
C -60.09543 11.87289 1.35288
C -60.62539 10.67477 1.84658
C -59.78604 9.63838 2.27253
C -58.38970 9.82685 2.27751
C -57.86392 11.03961 1.78954
C -58.70677 12.03831 1.28728
C -62.77709 14.00308 -0.45327
C -60.75093 18.55958 0.72563
C -59.76649 17.44341 0.38828
C -59.23704 16.69835 1.58271
C -58.08362 15.33308 2.83515
C -60.07098 16.22961 2.56479
C -58.95127 19.20074 -3.93162
C -56.97740 18.10584 -4.28122
C -55.84949 17.28449 -4.39670
C -54.69729 17.78749 -5.01273
C -54.63907 19.11828 -5.44362
C -55.78063 19.92231 -5.34161
C -56.97759 19.42646 -4.80049
C -62.23702 16.28186 -4.91194
C -60.06969 13.06591 9.34330
C -58.02945 13.78292 8.86876
C -62.29265 13.84507 7.06781
C -62.37646 11.28175 5.98248
C -58.88522 9.07214 9.16989
C -57.87955 10.45572 10.77542
C -63.64153 8.10792 4.79800
C -63.73927 10.00305 3.66450
C -61.31906 11.29599 -4.84066
C -55.97178 18.04884 0.51884
C -48.69793 18.31778 0.95381
C -51.73291 15.12621 -2.42002
C -47.86406 18.07804 -8.18292
C -49.19573 18.66135 -10.70490
C -50.22702 14.10659 -13.72206
C -49.80445 16.29501 -12.99583
C -48.67825 15.49344 -14.80156
C -54.48798 10.59893 -10.87048
C -56.41614 11.42944 -9.96372
C -58.08482 11.21979 -7.73002
C -56.33138 10.73683 -6.47280
C -55.88810 7.46025 -6.39859
C -56.22229 11.97419 -3.83998
C -58.41519 11.68230 -3.83730
C -58.87887 15.08519 -2.77682
C -60.29562 11.21491 -2.03729
C -60.52288 13.29711 -1.20736
C -57.56781 8.87410 2.80411
C -62.65378 15.05064 -1.08408
C -57.98147 16.11964 1.76132
C -59.32387 15.37271 3.34882
C -58.23380 18.04095 -3.71403
