649
comment
C 33.13055 22.82735 54.49991
C 33.13397 22.80101 55.99968
C 33.13739 22.77468 57.49944
C 33.14081 22.74835 58.99921
C 33.16446 24.32673 54.52616
C 33.16788 24.30040 56.02593
C 33.17130 24.27407 57.52569
C 33.17472 24.24774 59.02546
C 33.19495 25.85245 53.05264
C 33.19837 25.82612 54.55241
C 33.20179 25.79979 56.05217
C 33.20521 25.77346 57.55194
C 33.20863 25.74713 59.05170
C 33.21859 27.43083 48.57960
C 33.22201 27.40450 50.07936
C 33.22543 27.37817 51.57913
C 33.22886 27.35184 53.07889
C 33.23228 27.32551 54.57866
C 33.23570 27.29918 56.07842
C 33.23912 27.27284 57.57819
C 33.24908 28.95655 47.10608
C 33.25250 28.93022 48.60584
C 33.25592 28.90389 50.10561
C 33.25934 28.87756 51.60537
C 33.26619 28.82489 54.60490
C 33.26961 28.79856 56.10467
C 33.28299 30.45594 47.13233
C 33.28641 30.42961 48.63209
C 33.28983 30.40328 50.13186
C 33.29325 30.37694 51.63162
C 33.32032 31.92899 48.65834
C 33.32374 31.90266 50.15810
C 34.59625 21.29412 54.46965
C 34.59967 21.26778 55.96942
C 34.60309 21.24145 57.46918
C 34.63016 22.79350 54.49590
C 34.63358 22.76717 55.99566
C 34.63700 22.74084 57.49543
C 34.64043 22.71451 58.99519
C 34.66065 24.31922 53.02238
C 34.66407 24.29289 54.52215
C 34.66749 24.26656 56.02191
C 34.67091 24.24023 57.52168
C 34.67433 24.21389 59.02144
C 34.67776 24.18756 60.52121
C 34.68430 25.89760 48.54933
C 34.68772 25.87127 50.04910
C 34.69114 25.84494 51.54886
C 34.69456 25.81861 53.04863
C 34.69798 25.79228 54.54839
C 34.70140 25.76594 56.04816
C 34.70482 25.73961 57.54792
C 34.70824 25.71328 59.04769
C 34.71167 25.68695 60.54745
C 34.71478 27.42332 47.07582
C 34.71820 27.39699 48.57558
C 34.72163 27.37066 50.07535
C 34.72505 27.34433 51.57511
C 34.72847 27.31799 53.07488
C 34.73189 27.29166 54.57464
C 34.73531 27.26533 56.07441
C 34.73873 27.23900 57.57417
C 34.74215 27.21267 59.07394
C 34.74869 28.92271 47.10206
C 34.75211 28.89638 48.60183
C 34.75554 28.87004 50.10159
C 34.75896 28.84371 51.60136
C 34.76238 28.81738 53.10112
C 34.76580 28.79105 54.60089
C 34.76922 28.76472 56.10065
C 34.77264 28.73839 57.60042
C 34.78260 30.42209 47.12831
C 34.78602 30.39576 48.62808
C 34.78945 30.36943 50.12784
C 34.79287 30.34310 51.62761
C 34.79629 30.31677 53.12737
C 34.79971 30.29044 54.62714
C 34.81651 31.92148 47.15456
C 34.81993 31.89515 48.65432
C 34.82335 31.86882 50.15409
C 34.82678 31.84249 51.65385
C 36.09586 21.26027 54.46564
C 36.09929 21.23394 55.96540
C 36.10271 21.20761 57.46517
C 36.10613 21.18128 58.96493
C 36.12635 22.78599 52.99212
C 36.12977 22.75966 54.49188
C 36.13320 22.73333 55.99165
C 36.13662 22.70699 57.49141
C 36.14004 22.68066 58.99118
C 36.14346 22.65433 60.49094
C 36.14658 24.39070 47.01931
C 36.15000 24.36437 48.51907
C 36.15342 24.33804 50.01884
C 36.15684 24.31171 51.51860
C 36.16026 24.28538 53.01837
C 36.16368 24.25904 54.51813
C 36.16710 24.23271 56.01790
C 36.17053 24.20638 57.51766
C 36.17395 24.18005 59.01743
C 36.17737 24.15372 60.51719
C 36.17707 25.91642 45.54579
C 36.18049 25.89009 47.04555
C 36.18391 25.86376 48.54532
C 36.18733 25.83743 50.04508
C 36.19075 25.81109 51.54485
C 36.19417 25.78476 53.04461
C 36.19759 25.75843 54.54438
C 36.20101 25.73210 56.04414
C 36.20444 25.70577 57.54391
C 36.20786 25.67944 59.04367
C 36.21128 25.65311 60.54344
C 36.21098 27.41581 45.57204
C 36.21440 27.38948 47.07180
C 36.21782 27.36314 48.57157
C 36.22124 27.33681 50.07133
C 36.22466 27.31048 51.57110
C 36.22808 27.28415 53.07086
C 36.23150 27.25782 54.57063
C 36.23492 27.23149 56.07039
C 36.23835 27.20516 57.57016
C 36.24177 27.17882 59.06992
C 36.24519 27.15249 60.56969
C 36.24831 28.88886 47.09805
C 36.25173 28.86253 48.59781
C 36.25515 28.83620 50.09758
C 36.25857 28.80987 51.59734
C 36.26199 28.78354 53.09711
C 36.26541 28.75721 54.59687
C 36.26883 28.73087 56.09664
C 36.27225 28.70454 57.59640
C 36.28222 30.38825 47.12430
C 36.28564 30.36192 48.62406
C 36.28906 30.33559 50.12383
C 36.29248 30.30926 51.62359
C 36.29590 30.28292 53.12336
C 36.29932 30.25659 54.62312
C 36.30274 30.23026 56.12289
C 36.31612 31.88764 47.15054
C 36.31955 31.86131 48.65031
C 36.32297 31.83497 50.15007
C 36.32639 31.80864 51.64984
C 36.32981 31.78231 53.14960
C 36.35688 33.33436 50.17632
C 37.59548 21.22643 54.46162
C 37.59890 21.20010 55.96139
C 37.60232 21.17376 57.46115
C 37.60574 21.14743 58.96092
C 37.60886 22.88380 45.48928
C 37.61228 22.85747 46.98904
C 37.61570 22.83114 48.48881
C 37.61912 22.80481 49.98857
C 37.62254 22.77848 51.48834
C 37.62597 22.75215 52.98810
C 37.62939 22.72581 54.48787
C 37.63281 22.69948 55.98763
C 37.63623 22.67315 57.48740
C 37.63965 22.64682 58.98716
C 37.64307 22.62049 60.48693
C 37.63935 24.40952 44.01576
C 37.64277 24.38319 45.51553
C 37.64619 24.35686 47.01529
C 37.64961 24.33053 48.51506
C 37.65303 24.30420 50.01482
C 37.65645 24.27786 51.51459
C 37.65988 24.25153 53.01435
C 37.66330 24.22520 54.51412
C 37.66672 24.19887 56.01388
C 37.67014 24.17254 57.51365
C 37.67356 24.14621 59.01341
C 37.67698 24.11987 60.51318
C 37.66984 25.93524 42.54224
C 37.67326 25.90891 44.04201
C 37.67668 25.88258 45.54177
C 37.68010 25.85625 47.04154
C 37.68352 25.82991 48.54130
C 37.68694 25.80358 50.04107
C 37.69036 25.77725 51.54083
C 37.69378 25.75092 53.04060
C 37.69721 25.72459 54.54036
C 37.70063 25.69826 56.04013
C 37.70405 25.67192 57.53989
C 37.70747 25.64559 59.03966
C 37.71089 25.61926 60.53942
C 37.70375 27.43463 42.56849
C 37.70717 27.40830 44.06826
C 37.71059 27.38196 45.56802
C 37.71401 27.35563 47.06779
C 37.71743 27.32930 48.56755
C 37.72085 27.30297 50.06732
C 37.72427 27.27664 51.56708
C 37.72769 27.25031 53.06685
C 37.73112 27.22397 54.56661
C 37.73454 27.19764 56.06638
C 37.73796 27.17131 57.56614
C 37.74138 27.14498 59.06591
C 37.74480 27.11865 60.56567
C 37.73765 28.93401 42.59474
C 37.74108 28.90768 44.09450
C 37.74450 28.88135 45.59427
C 37.74792 28.85502 47.09403
C 37.75134 28.82869 48.59380
C 37.75476 28.80236 50.09356
C 37.75818 28.77602 51.59333
C 37.76160 28.74969 53.09309
C 37.76502 28.72336 54.59286
C 37.76845 28.69703 56.09262
C 37.77187 28.67070 57.59239
C 37.77499 30.40707 44.12075
C 37.77841 30.38074 45.62052
C 37.78183 30.35441 47.12028
C 37.78525 30.32807 48.62005
C 37.78867 30.30174 50.11981
C 37.79209 30.27541 51.61958
C 37.79551 30.24908 53.11934
C 37.79893 30.22275 54.61911
C 37.80236 30.19642 56.11887
C 37.81574 31.85379 47.14653
C 37.81916 31.82746 48.64629
C 37.82258 31.80113 50.14606
C 37.82600 31.77480 51.64582
C 37.82942 31.74847 53.14559
C 37.83284 31.72214 54.64535
C 37.85307 33.32685 48.67254
C 37.85649 33.30052 50.17231
C 37.85991 33.27419 51.67207
C 39.07456 21.35057 45.45902
C 39.07798 21.32424 46.95878
C 39.08141 21.29791 48.45855
C 39.09509 21.19258 54.45761
C 39.09851 21.16625 55.95737
C 39.10193 21.13992 57.45714
C 39.10847 22.84996 45.48526
C 39.11189 22.82363 46.98503
C 39.11531 22.79730 48.48479
C 39.11874 22.77096 49.98456
C 39.12216 22.74463 51.48432
C 39.12558 22.71830 52.98409
C 39.12900 22.69197 54.48385
C 39.13242 22.66564 55.98362
C 39.13584 22.63931 57.48338
C 39.13926 22.61297 58.98315
C 39.13554 24.40201 42.51198
C 39.13896 24.37568 44.01175
C 39.14238 24.34935 45.51151
C 39.14580 24.32301 47.01128
C 39.14922 24.29668 48.51104
C 39.15265 24.27035 50.01081
C 39.15607 24.24402 51.51057
C 39.15949 24.21769 53.01034
C 39.16291 24.19136 54.51010
C 39.16633 24.16502 56.00987
C 39.16975 24.13869 57.50963
C 39.17317 24.11236 59.00940
C 39.17659 24.08603 60.50916
C 39.16603 25.92773 41.03846
C 39.16945 25.90140 42.53823
C 39.17287 25.87506 44.03799
C 39.17629 25.84873 45.53776
C 39.17971 25.82240 47.03752
C 39.18313 25.79607 48.53729
C 39.18655 25.76974 50.03705
C 39.18998 25.74341 51.53682
C 39.19340 25.71707 53.03658
C 39.19682 25.69074 54.53635
C 39.20024 25.66441 56.03611
C 39.20366 25.63808 57.53588
C 39.20708 25.61175 59.03564
C 39.21050 25.58542 60.53541
C 39.19994 27.42711 41.06471
C 39.20336 27.40078 42.56448
C 39.20678 27.37445 44.06424
C 39.21020 27.34812 45.56401
C 39.21362 27.32179 47.06377
C 39.21704 27.29546 48.56354
C 39.22046 27.26912 50.06330
C 39.22389 27.24279 51.56307
C 39.22731 27.21646 53.06283
C 39.23073 27.19013 54.56260
C 39.23415 27.16380 56.06236
C 39.23757 27.13747 57.56213
C 39.24099 27.11114 59.06189
C 39.23385 28.92650 41.09096
C 39.23727 28.90017 42.59072
C 39.24069 28.87384 44.09049
C 39.24411 28.84751 45.59025
C 39.24753 28.82117 47.09002
C 39.25095 28.79484 48.58978
C 39.25437 28.76851 50.08955
C 39.25780 28.74218 51.58931
C 39.26122 28.71585 53.08908
C 39.26464 28.68952 54.58884
C 39.26806 28.66319 56.08861
C 39.27148 28.63685 57.58837
C 39.27118 30.39956 42.61697
C 39.27460 30.37322 44.11674
C 39.27802 30.34689 45.61650
C 39.28144 30.32056 47.11627
C 39.28486 30.29423 48.61603
C 39.28828 30.26790 50.11580
C 39.29170 30.24157 51.61556
C 39.29513 30.21524 53.11533
C 39.29855 30.18890 54.61509
C 39.30197 30.16257 56.11486
C 39.30539 30.13624 57.61462
C 39.31535 31.81995 47.14251
C 39.31877 31.79362 48.64228
C 39.32219 31.76729 50.14204
C 39.32561 31.74095 51.64181
C 39.32904 31.71462 53.14157
C 39.33246 31.68829 54.64134
C 39.33588 31.66196 56.14110
C 39.35610 33.26667 50.16829
C 39.35952 33.24034 51.66806
C 40.57418 21.31673 45.45500
C 40.57760 21.29040 46.95477
C 40.58102 21.26406 48.45453
C 40.58444 21.23773 49.95430
C 40.60466 22.84245 43.98148
C 40.60808 22.81611 45.48125
C 40.61151 22.78978 46.98101
C 40.61493 22.76345 48.48078
C 40.61835 22.73712 49.98054
C 40.62177 22.71079 51.48031
C 40.62519 22.68446 52.98007
C 40.62861 22.65812 54.47984
C 40.63203 22.63179 55.97960
C 40.63545 22.60546 57.47937
C 40.63515 24.36816 42.50797
C 40.63857 24.34183 44.00773
C 40.64199 24.31550 45.50750
C 40.64542 24.28917 47.00726
C 40.64884 24.26284 48.50703
C 40.65226 24.23651 50.00679
C 40.65568 24.21017 51.50656
C 40.65910 24.18384 53.00632
C 40.66252 24.15751 54.50609
C 40.66594 24.13118 56.00585
C 40.66936 24.10485 57.50562
C 40.67279 24.07852 59.00538
C 40.66222 25.92021 39.53468
C 40.66564 25.89388 41.03445
C 40.66906 25.86755 42.53421
C 40.67248 25.84122 44.03398
C 40.67590 25.81489 45.53374
C 40.67933 25.78856 47.03351
C 40.68275 25.76223 48.53327
C 40.68617 25.73589 50.03304
C 40.68959 25.70956 51.53280
C 40.69301 25.68323 53.03257
C 40.69643 25.65690 54.53233
C 40.69985 25.63057 56.03210
C 40.70327 25.60424 57.53186
C 40.70670 25.57790 59.03163
C 40.69613 27.41960 39.56093
C 40.69955 27.39327 41.06070
C 40.70297 27.36694 42.56046
C 40.70639 27.34061 44.06023
C 40.70981 27.31428 45.55999
C 40.71323 27.28794 47.05976
C 40.71666 27.26161 48.55952
C 40.72008 27.23528 50.05929
C 40.72350 27.20895 51.55905
C 40.72692 27.18262 53.05882
C 40.73034 27.15629 54.55858
C 40.73376 27.12995 56.05835
C 40.73718 27.10362 57.55811
C 40.74060 27.07729 59.05788
C 40.73004 28.91899 39.58718
C 40.73346 28.89266 41.08694
C 40.73688 28.86633 42.58671
C 40.74030 28.83999 44.08647
C 40.74372 28.81366 45.58624
C 40.74714 28.78733 47.08600
C 40.75057 28.76100 48.58577
C 40.75399 28.73467 50.08553
C 40.75741 28.70834 51.58530
C 40.76083 28.68200 53.08506
C 40.76425 28.65567 54.58483
C 40.76767 28.62934 56.08459
C 40.77109 28.60301 57.58436
C 40.76395 30.41838 39.61343
C 40.76737 30.39204 41.11319
C 40.77079 30.36571 42.61296
C 40.77421 30.33938 44.11272
C 40.77763 30.31305 45.61249
C 40.78105 30.28672 47.11225
C 40.78447 30.26039 48.61202
C 40.78790 30.23405 50.11178
C 40.79132 30.20772 51.61155
C 40.79474 30.18139 53.11131
C 40.79816 30.15506 54.61108
C 40.80158 30.12873 56.11084
C 40.80470 31.86510 42.63920
C 40.81838 31.75977 48.63826
C 40.82181 31.73344 50.13803
C 40.82523 31.70711 51.63779
C 40.82865 31.68078 53.13756
C 40.83207 31.65445 54.63732
C 40.83549 31.62812 56.13709
C 42.07379 21.28288 45.45099
C 42.07721 21.25655 46.95075
C 42.08063 21.23022 48.45052
C 42.10428 22.80860 43.97747
C 42.10770 22.78227 45.47723
C 42.11112 22.75594 46.97700
C 42.11454 22.72961 48.47676
C 42.11796 22.70328 49.97653
C 42.12138 22.67694 51.47629
C 42.12450 24.41331 38.00466
C 42.12792 24.38698 39.50442
C 42.13134 24.36065 41.00419
C 42.13476 24.33432 42.50395
C 42.13819 24.30799 44.00372
C 42.14161 24.28166 45.50348
C 42.14503 24.25533 47.00325
C 42.14845 24.22899 48.50301
C 42.15187 24.20266 50.00278
C 42.15529 24.17633 51.50254
C 42.15871 24.15000 53.00231
C 42.16213 24.12367 54.50207
C 42.16556 24.09734 56.00184
C 42.16898 24.07100 57.50160
C 42.15841 25.91270 38.03090
C 42.16183 25.88637 39.53067
C 42.16525 25.86004 41.03043
C 42.16867 25.83371 42.53020
C 42.17210 25.80738 44.02996
C 42.17552 25.78104 45.52973
C 42.17894 25.75471 47.02949
C 42.18236 25.72838 48.52926
C 42.18578 25.70205 50.02902
C 42.18920 25.67572 51.52879
C 42.19262 25.64939 53.02855
C 42.19604 25.62305 54.52832
C 42.19947 25.59672 56.02808
C 42.20289 25.57039 57.52785
C 42.19232 27.41209 38.05715
C 42.19574 27.38576 39.55692
C 42.19916 27.35943 41.05668
C 42.20258 27.33309 42.55645
C 42.20600 27.30676 44.05621
C 42.20943 27.28043 45.55598
C 42.21285 27.25410 47.05574
C 42.21627 27.22777 48.55551
C 42.21969 27.20144 50.05527
C 42.22311 27.17510 51.55504
C 42.22653 27.14877 53.05480
C 42.22995 27.12244 54.55457
C 42.23337 27.09611 56.05433
C 42.23680 27.06978 57.55410
C 42.22623 28.91148 38.08340
C 42.22965 28.88514 39.58316
C 42.23307 28.85881 41.08293
C 42.23649 28.83248 42.58269
C 42.23991 28.80615 44.08246
C 42.24334 28.77982 45.58222
C 42.24676 28.75349 47.08199
C 42.25018 28.72715 48.58175
C 42.25360 28.70082 50.08152
C 42.25702 28.67449 51.58128
C 42.26044 28.64816 53.08105
C 42.26386 28.62183 54.58081
C 42.26728 28.59550 56.08058
C 42.26356 30.38453 39.60941
C 42.26698 30.35820 41.10918
C 42.27040 30.33187 42.60894
C 42.27382 30.30554 44.10871
C 42.27725 30.27920 45.60847
C 42.28067 30.25287 47.10824
C 42.28409 30.22654 48.60800
C 42.28751 30.20021 50.10777
C 42.29093 30.17388 51.60753
C 42.29435 30.14755 53.10730
C 42.29777 30.12122 54.60706
C 42.30119 30.09488 56.10683
C 42.30089 31.85759 41.13542
C 42.30431 31.83125 42.63519
C 42.30773 31.80492 44.13495
C 43.57340 21.24904 45.44697
C 43.57682 21.22271 46.94674
C 43.59363 22.85375 39.47416
C 43.59705 22.82742 40.97392
C 43.60047 22.80109 42.47369
C 43.60389 22.77476 43.97345
C 43.60731 22.74843 45.47322
C 43.61073 22.72209 46.97298
C 43.61415 22.69576 48.47275
C 43.61757 22.66943 49.97251
C 43.62411 24.37947 38.00064
C 43.62753 24.35314 39.50041
C 43.63096 24.32681 41.00017
C 43.63438 24.30048 42.49994
C 43.63780 24.27414 43.99970
C 43.64122 24.24781 45.49947
C 43.64464 24.22148 46.99923
C 43.64806 24.19515 48.49900
C 43.65148 24.16882 49.99876
C 43.65490 24.14249 51.49853
C 43.65802 25.87886 38.02689
C 43.66144 25.85253 39.52665
C 43.66487 25.82619 41.02642
C 43.66829 25.79986 42.52618
C 43.67171 25.77353 44.02595
C 43.67513 25.74720 45.52571
C 43.67855 25.72087 47.02548
C 43.68197 25.69454 48.52524
C 43.68539 25.66820 50.02501
C 43.68881 25.64187 51.52477
C 43.69224 25.61554 53.02454
C 43.69566 25.58921 54.52430
C 43.69193 27.37824 38.05314
C 43.69535 27.35191 39.55290
C 43.69878 27.32558 41.05267
C 43.70220 27.29925 42.55243
C 43.70562 27.27292 44.05220
C 43.70904 27.24659 45.55196
C 43.71246 27.22025 47.05173
C 43.71588 27.19392 48.55149
C 43.71930 27.16759 50.05126
C 43.72272 27.14126 51.55102
C 43.72615 27.11493 53.05079
C 43.72957 27.08860 54.55055
C 43.73299 27.06227 56.05032
C 43.72584 28.87763 38.07938
C 43.72926 28.85130 39.57915
C 43.73268 28.82497 41.07891
C 43.73611 28.79864 42.57868
C 43.73953 28.77230 44.07844
C 43.74295 28.74597 45.57821
C 43.74637 28.71964 47.07797
C 43.74979 28.69331 48.57774
C 43.75321 28.66698 50.07750
C 43.75663 28.64065 51.57727
C 43.76005 28.61432 53.07703
C 43.76348 28.58798 54.57680
C 43.76690 28.56165 56.07656
C 43.75975 30.37702 38.10563
C 43.76317 30.35069 39.60540
C 43.76659 30.32436 41.10516
C 43.77002 30.29802 42.60493
C 43.77344 30.27169 44.10469
C 43.77686 30.24536 45.60446
C 43.78370 30.19270 48.60399
C 43.78712 30.16637 50.10375
C 43.80050 31.82374 41.13141
C 43.80393 31.79741 42.63117
C 45.09324 22.81991 39.47014
C 45.09666 22.79358 40.96991
C 45.10008 22.76724 42.46967
C 45.10350 22.74091 43.96944
C 45.10692 22.71458 45.46920
C 45.11034 22.68825 46.96897
C 45.11377 22.66192 48.46873
C 45.12373 24.34563 37.99663
C 45.12715 24.31929 39.49639
C 45.13057 24.29296 40.99616
C 45.13399 24.26663 42.49592
C 45.13741 24.24030 43.99569
C 45.14083 24.21397 45.49545
C 45.14425 24.18764 46.99522
C 45.14768 24.16131 48.49498
C 45.15110 24.13497 49.99475
C 45.15764 25.84501 38.02287
C 45.16106 25.81868 39.52264
C 45.16448 25.79235 41.02240
C 45.16790 25.76602 42.52217
C 45.17132 25.73969 44.02193
C 45.17474 25.71336 45.52170
C 45.17816 25.68702 47.02146
C 45.18158 25.66069 48.52123
C 45.18501 25.63436 50.02099
C 45.19155 27.34440 38.04912
C 45.19497 27.31807 39.54889
C 45.19839 27.29174 41.04865
C 45.20181 27.26541 42.54842
C 45.20523 27.23907 44.04818
C 45.20865 27.21274 45.54795
C 45.21207 27.18641 47.04771
C 45.21549 27.16008 48.54748
C 45.22546 28.84379 38.07537
C 45.22888 28.81746 39.57513
C 45.23230 28.79112 41.07490
C 45.23572 28.76479 42.57466
C 45.23914 28.73846 44.07443
C 45.24256 28.71213 45.57419
C 45.24598 28.68580 47.07396
C 45.25936 30.34317 38.10162
C 45.26279 30.31684 39.60138
C 45.26621 30.29051 41.10115
C 45.26963 30.26418 42.60091
C 45.27305 30.23785 44.10068
C 45.30012 31.78990 41.12739
C 46.59627 22.75973 40.96589
C 46.60311 22.70707 43.96542
C 46.60654 22.68074 45.46519
C 46.60996 22.65441 46.96495
C 46.62334 24.31178 37.99261
C 46.62676 24.28545 39.49238
C 46.63018 24.25912 40.99214
C 46.63360 24.23279 42.49191
C 46.63702 24.20646 43.99167
C 46.64045 24.18012 45.49144
C 46.64387 24.15379 46.99120
C 46.64729 24.12746 48.49097
C 46.65725 25.81117 38.01886
C 46.66067 25.78484 39.51862
C 46.66409 25.75851 41.01839
C 46.66751 25.73217 42.51815
C 46.67093 25.70584 44.01792
C 46.67436 25.67951 45.51768
C 46.67778 25.65318 47.01745
C 46.68120 25.62685 48.51721
C 46.69116 27.31056 38.04511
C 46.69458 27.28422 39.54487
C 46.69800 27.25789 41.04464
C 46.70142 27.23156 42.54440
C 46.70484 27.20523 44.04417
C 46.70826 27.17890 45.54393
C 46.71169 27.15257 47.04370
C 46.72507 28.80994 38.07135
C 46.72849 28.78361 39.57112
C 46.73191 28.75728 41.07088
C 46.73533 28.73095 42.57065
C 46.73875 28.70462 44.07041
C 46.74217 28.67828 45.57018
C 46.75898 30.30933 38.09760
C 46.76240 30.28300 39.59737
C 46.76582 30.25667 41.09713
C 46.76924 30.23033 42.59690
C 48.12637 24.25161 39.48836
C 48.12979 24.22527 40.98813
C 48.13322 24.19894 42.48789
C 48.15686 25.77732 38.01484
C 48.16028 25.75099 39.51461
C 48.16370 25.72466 41.01437
C 48.16713 25.69833 42.51414
C 48.17055 25.67200 44.01390
C 48.17397 25.64567 45.51367
C 48.19077 27.27671 38.04109
C 48.19419 27.25038 39.54086
C 48.19761 27.22405 41.04062
C 48.20103 27.19772 42.54039
C 48.20446 27.17139 44.04015
C 48.22810 28.74977 39.56710
C 48.23152 28.72344 41.06687
C 48.23494 28.69710 42.56663
C 49.66332 25.69082 41.01036
C 49.69723 27.19020 41.03661
