649
comment
C 32.76954 22.98602 54.27651
C 32.75361 22.98114 55.77642
C 32.73768 22.97626 57.27633
C 32.72176 22.97139 58.77623
C 32.78095 24.48597 54.28151
C 32.76502 24.48109 55.78142
C 32.74910 24.47621 57.28132
C 32.73317 24.47133 58.78123
C 32.80829 25.99079 52.78660
C 32.79236 25.98591 54.28651
C 32.77644 25.98104 55.78642
C 32.76051 25.97616 57.28632
C 32.74458 25.97128 58.78623
C 32.86749 27.50537 48.29188
C 32.85156 27.50050 49.79178
C 32.83563 27.49562 51.29169
C 32.81971 27.49074 52.79160
C 32.80378 27.48586 54.29151
C 32.78785 27.48099 55.79141
C 32.77193 27.47611 57.29132
C 32.89483 29.01020 46.79697
C 32.87890 29.00532 48.29688
C 32.86297 29.00044 49.79678
C 32.84705 28.99557 51.29669
C 32.81519 28.98581 54.29651
C 32.79927 28.98093 55.79641
C 32.90624 30.51015 46.80197
C 32.89032 30.50527 48.30187
C 32.87439 30.50039 49.80178
C 32.85846 30.49551 51.30169
C 32.90173 32.00522 48.30687
C 32.88580 32.00034 49.80678
C 34.25799 21.47460 54.28740
C 34.24207 21.46973 55.78731
C 34.22614 21.46485 57.28722
C 34.26941 22.97455 54.29240
C 34.25348 22.96967 55.79231
C 34.23755 22.96480 57.29221
C 34.22163 22.95992 58.79212
C 34.29675 24.47938 52.79749
C 34.28082 24.47450 54.29740
C 34.26490 24.46962 55.79731
C 34.24897 24.46474 57.29721
C 34.23304 24.45987 58.79712
C 34.21712 24.45499 60.29703
C 34.35594 25.99396 48.30277
C 34.34002 25.98908 49.80267
C 34.32409 25.98420 51.30258
C 34.30816 25.97933 52.80249
C 34.29224 25.97445 54.30240
C 34.27631 25.96957 55.80230
C 34.26038 25.96469 57.30221
C 34.24446 25.95982 58.80212
C 34.22853 25.95494 60.30203
C 34.38329 27.49878 46.80786
C 34.36736 27.49391 48.30777
C 34.35143 27.48903 49.80767
C 34.33551 27.48415 51.30758
C 34.31958 27.47927 52.80749
C 34.30365 27.47440 54.30740
C 34.28773 27.46952 55.80730
C 34.27180 27.46464 57.30721
C 34.25587 27.45976 58.80712
C 34.39470 28.99873 46.81286
C 34.37877 28.99385 48.31276
C 34.36285 28.98898 49.81267
C 34.34692 28.98410 51.31258
C 34.33099 28.97922 52.81249
C 34.31507 28.97434 54.31239
C 34.29914 28.96947 55.81230
C 34.28321 28.96459 57.31221
C 34.40612 30.49868 46.81786
C 34.39019 30.49380 48.31776
C 34.37426 30.48892 49.81767
C 34.35834 30.48405 51.31758
C 34.34241 30.47917 52.81749
C 34.32648 30.47429 54.31739
C 34.41753 31.99863 46.82285
C 34.40160 31.99375 48.32276
C 34.38568 31.98887 49.82267
C 34.36975 31.98400 51.32258
C 35.75786 21.46314 54.30329
C 35.74194 21.45826 55.80320
C 35.72601 21.45338 57.30310
C 35.71008 21.44850 58.80301
C 35.78521 22.96796 52.80838
C 35.76928 22.96308 54.30829
C 35.75335 22.95821 55.80820
C 35.73743 22.95333 57.30810
C 35.72150 22.94845 58.80801
C 35.70557 22.94357 60.30792
C 35.86033 24.48742 46.81375
C 35.84440 24.48254 48.31366
C 35.82847 24.47766 49.81356
C 35.81255 24.47279 51.31347
C 35.79662 24.46791 52.81338
C 35.78069 24.46303 54.31329
C 35.76477 24.45815 55.81319
C 35.74884 24.45328 57.31310
C 35.73291 24.44840 58.81301
C 35.71699 24.44352 60.31292
C 35.88767 25.99225 45.31884
C 35.87174 25.98737 46.81875
C 35.85582 25.98249 48.31866
C 35.83989 25.97761 49.81856
C 35.82396 25.97274 51.31847
C 35.80804 25.96786 52.81838
C 35.79211 25.96298 54.31829
C 35.77618 25.95810 55.81819
C 35.76026 25.95323 57.31810
C 35.74433 25.94835 58.81801
C 35.72840 25.94347 60.31792
C 35.89908 27.49219 45.32384
C 35.88316 27.48732 46.82375
C 35.86723 27.48244 48.32365
C 35.85130 27.47756 49.82356
C 35.83538 27.47268 51.32347
C 35.81945 27.46781 52.82338
C 35.80352 27.46293 54.32328
C 35.78760 27.45805 55.82319
C 35.77167 27.45317 57.32310
C 35.75574 27.44830 58.82301
C 35.73982 27.44342 60.32292
C 35.89457 28.98726 46.82875
C 35.87865 28.98239 48.32865
C 35.86272 28.97751 49.82856
C 35.84679 28.97263 51.32847
C 35.83087 28.96775 52.82838
C 35.81494 28.96288 54.32828
C 35.79901 28.95800 55.82819
C 35.78309 28.95312 57.32810
C 35.90599 30.48721 46.83374
C 35.89006 30.48233 48.33365
C 35.87413 30.47746 49.83356
C 35.85821 30.47258 51.33347
C 35.84228 30.46770 52.83338
C 35.82635 30.46282 54.33328
C 35.81043 30.45795 55.83319
C 35.91740 31.98716 46.83874
C 35.90148 31.98228 48.33865
C 35.88555 31.97741 49.83856
C 35.86962 31.97253 51.33847
C 35.85370 31.96765 52.83837
C 35.89696 33.47735 49.84356
C 37.25774 21.45167 54.31918
C 37.24181 21.44679 55.81909
C 37.22588 21.44191 57.31899
C 37.20996 21.43704 58.81890
C 37.36471 22.98088 45.32473
C 37.34878 22.97600 46.82464
C 37.33286 22.97113 48.32455
C 37.31693 22.96625 49.82446
C 37.30100 22.96137 51.32436
C 37.28508 22.95649 52.82427
C 37.26915 22.95162 54.32418
C 37.25322 22.94674 55.82409
C 37.23730 22.94186 57.32399
C 37.22137 22.93698 58.82390
C 37.20544 22.93211 60.32381
C 37.39205 24.48571 43.82982
C 37.37613 24.48083 45.32973
C 37.36020 24.47595 46.82964
C 37.34427 24.47107 48.32955
C 37.32835 24.46620 49.82945
C 37.31242 24.46132 51.32936
C 37.29649 24.45644 52.82927
C 37.28057 24.45156 54.32918
C 37.26464 24.44669 55.82908
C 37.24871 24.44181 57.32899
C 37.23279 24.43693 58.82890
C 37.21686 24.43205 60.32881
C 37.41939 25.99053 42.33492
C 37.40347 25.98566 43.83482
C 37.38754 25.98078 45.33473
C 37.37161 25.97590 46.83464
C 37.35569 25.97102 48.33455
C 37.33976 25.96615 49.83445
C 37.32383 25.96127 51.33436
C 37.30791 25.95639 52.83427
C 37.29198 25.95151 54.33418
C 37.27605 25.94664 55.83408
C 37.26013 25.94176 57.33399
C 37.24420 25.93688 58.83390
C 37.22827 25.93200 60.33381
C 37.43081 27.49048 42.33991
C 37.41488 27.48560 43.83982
C 37.39896 27.48073 45.33973
C 37.38303 27.47585 46.83964
C 37.36710 27.47097 48.33954
C 37.35118 27.46609 49.83945
C 37.33525 27.46122 51.33936
C 37.31932 27.45634 52.83927
C 37.30340 27.45146 54.33917
C 37.28747 27.44658 55.83908
C 37.27154 27.44171 57.33899
C 37.25562 27.43683 58.83890
C 37.23969 27.43195 60.33880
C 37.44222 28.99043 42.34491
C 37.42630 28.98555 43.84482
C 37.41037 28.98067 45.34473
C 37.39444 28.97580 46.84464
C 37.37852 28.97092 48.34454
C 37.36259 28.96604 49.84445
C 37.34666 28.96116 51.34436
C 37.33074 28.95629 52.84427
C 37.31481 28.95141 54.34417
C 37.29888 28.94653 55.84408
C 37.28296 28.94165 57.34399
C 37.43771 30.48550 43.84982
C 37.42179 30.48062 45.34973
C 37.40586 30.47574 46.84963
C 37.38993 30.47087 48.34954
C 37.37401 30.46599 49.84945
C 37.35808 30.46111 51.34936
C 37.34215 30.45624 52.84926
C 37.32623 30.45136 54.34917
C 37.31030 30.44648 55.84908
C 37.41727 31.97569 46.85463
C 37.40135 31.97082 48.35454
C 37.38542 31.96594 49.85445
C 37.36949 31.96106 51.35436
C 37.35357 31.95618 52.85426
C 37.33764 31.95131 54.35417
C 37.41276 33.47076 48.35954
C 37.39684 33.46589 49.85945
C 37.38091 33.46101 51.35935
C 38.85317 21.46947 45.33562
C 38.83724 21.46459 46.83553
C 38.82131 21.45971 48.33544
C 38.75761 21.44020 54.33507
C 38.74168 21.43532 55.83498
C 38.72575 21.43045 57.33488
C 38.86458 22.96941 45.34062
C 38.84866 22.96454 46.84053
C 38.83273 22.95966 48.34044
C 38.81680 22.95478 49.84034
C 38.80088 22.94990 51.34025
C 38.78495 22.94503 52.84016
C 38.76902 22.94015 54.34007
C 38.75310 22.93527 55.83997
C 38.73717 22.93039 57.33988
C 38.72124 22.92552 58.83979
C 38.90785 24.47912 42.34581
C 38.89192 24.47424 43.84571
C 38.87600 24.46936 45.34562
C 38.86007 24.46448 46.84553
C 38.84414 24.45961 48.34544
C 38.82822 24.45473 49.84534
C 38.81229 24.44985 51.34525
C 38.79636 24.44497 52.84516
C 38.78044 24.44010 54.34507
C 38.76451 24.43522 55.84497
C 38.74858 24.43034 57.34488
C 38.73266 24.42547 58.84479
C 38.71673 24.42059 60.34470
C 38.93519 25.98394 40.85090
C 38.91927 25.97907 42.35080
C 38.90334 25.97419 43.85071
C 38.88741 25.96931 45.35062
C 38.87149 25.96443 46.85053
C 38.85556 25.95956 48.35043
C 38.83963 25.95468 49.85034
C 38.82371 25.94980 51.35025
C 38.80778 25.94492 52.85016
C 38.79185 25.94005 54.35006
C 38.77593 25.93517 55.84997
C 38.76000 25.93029 57.34988
C 38.74407 25.92541 58.84979
C 38.72815 25.92054 60.34969
C 38.94661 27.48389 40.85590
C 38.93068 27.47901 42.35580
C 38.91475 27.47414 43.85571
C 38.89883 27.46926 45.35562
C 38.88290 27.46438 46.85553
C 38.86697 27.45950 48.35543
C 38.85105 27.45463 49.85534
C 38.83512 27.44975 51.35525
C 38.81919 27.44487 52.85516
C 38.80327 27.43999 54.35506
C 38.78734 27.43512 55.85497
C 38.77141 27.43024 57.35488
C 38.75549 27.42536 58.85479
C 38.95802 28.98384 40.86089
C 38.94210 28.97896 42.36080
C 38.92617 28.97408 43.86071
C 38.91024 28.96921 45.36062
C 38.89432 28.96433 46.86052
C 38.87839 28.95945 48.36043
C 38.86246 28.95457 49.86034
C 38.84654 28.94970 51.36025
C 38.83061 28.94482 52.86015
C 38.81468 28.93994 54.36006
C 38.79876 28.93506 55.85997
C 38.78283 28.93019 57.35988
C 38.95351 30.47891 42.36580
C 38.93758 30.47403 43.86571
C 38.92166 30.46916 45.36562
C 38.90573 30.46428 46.86552
C 38.88980 30.45940 48.36543
C 38.87388 30.45452 49.86534
C 38.85795 30.44965 51.36525
C 38.84202 30.44477 52.86515
C 38.82610 30.43989 54.36506
C 38.81017 30.43501 55.86497
C 38.79424 30.43014 57.36488
C 38.91715 31.96423 46.87052
C 38.90122 31.95935 48.37043
C 38.88529 31.95447 49.87034
C 38.86937 31.94959 51.37024
C 38.85344 31.94472 52.87015
C 38.83751 31.93984 54.37006
C 38.82159 31.93496 55.86997
C 38.89671 33.45442 49.87534
C 38.88078 33.44954 51.37524
C 40.35304 21.45800 45.35151
C 40.33711 21.45312 46.85142
C 40.32119 21.44824 48.35133
C 40.30526 21.44337 49.85123
C 40.38038 22.96282 43.85660
C 40.36446 22.95795 45.35651
C 40.34853 22.95307 46.85642
C 40.33260 22.94819 48.35633
C 40.31668 22.94331 49.85623
C 40.30075 22.93844 51.35614
C 40.28482 22.93356 52.85605
C 40.26890 22.92868 54.35596
C 40.25297 22.92380 55.85586
C 40.23704 22.91893 57.35577
C 40.40772 24.46765 42.36169
C 40.39180 24.46277 43.86160
C 40.37587 24.45789 45.36151
C 40.35994 24.45302 46.86142
C 40.34402 24.44814 48.36132
C 40.32809 24.44326 49.86123
C 40.31216 24.43839 51.36114
C 40.29624 24.43351 52.86105
C 40.28031 24.42863 54.36095
C 40.26438 24.42375 55.86086
C 40.24846 24.41888 57.36077
C 40.23253 24.41400 58.86068
C 40.45099 25.97735 39.36688
C 40.43507 25.97248 40.86679
C 40.41914 25.96760 42.36669
C 40.40321 25.96272 43.86660
C 40.38729 25.95784 45.36651
C 40.37136 25.95297 46.86642
C 40.35543 25.94809 48.36632
C 40.33951 25.94321 49.86623
C 40.32358 25.93833 51.36614
C 40.30765 25.93346 52.86605
C 40.29173 25.92858 54.36595
C 40.27580 25.92370 55.86586
C 40.25987 25.91882 57.36577
C 40.24394 25.91395 58.86568
C 40.46241 27.47730 39.37188
C 40.44648 27.47242 40.87178
C 40.43055 27.46755 42.37169
C 40.41463 27.46267 43.87160
C 40.39870 27.45779 45.37151
C 40.38277 27.45291 46.87141
C 40.36685 27.44804 48.37132
C 40.35092 27.44316 49.87123
C 40.33499 27.43828 51.37114
C 40.31907 27.43340 52.87104
C 40.30314 27.42853 54.37095
C 40.28721 27.42365 55.87086
C 40.27129 27.41877 57.37077
C 40.25536 27.41389 58.87067
C 40.47382 28.97725 39.37688
C 40.45789 28.97237 40.87678
C 40.44197 28.96749 42.37669
C 40.42604 28.96262 43.87660
C 40.41011 28.95774 45.37651
C 40.39419 28.95286 46.87641
C 40.37826 28.94798 48.37632
C 40.36233 28.94311 49.87623
C 40.34641 28.93823 51.37614
C 40.33048 28.93335 52.87604
C 40.31455 28.92847 54.37595
C 40.29863 28.92360 55.87586
C 40.28270 28.91872 57.37577
C 40.48524 30.47720 39.38187
C 40.46931 30.47232 40.88178
C 40.45338 30.46744 42.38169
C 40.43746 30.46257 43.88160
C 40.42153 30.45769 45.38150
C 40.40560 30.45281 46.88141
C 40.38968 30.44793 48.38132
C 40.37375 30.44306 49.88123
C 40.35782 30.43818 51.38113
C 40.34190 30.43330 52.88104
C 40.32597 30.42842 54.38095
C 40.31004 30.42355 55.88086
C 40.46480 31.96739 42.38669
C 40.40109 31.94788 48.38632
C 40.38516 31.94300 49.88623
C 40.36924 31.93813 51.38613
C 40.35331 31.93325 52.88604
C 40.33738 31.92837 54.38595
C 40.32146 31.92349 55.88586
C 41.85291 21.44653 45.36740
C 41.83699 21.44165 46.86731
C 41.82106 21.43678 48.36722
C 41.88025 22.95136 43.87249
C 41.86433 22.94648 45.37240
C 41.84840 22.94160 46.87231
C 41.83247 22.93672 48.37221
C 41.81655 22.93185 49.87212
C 41.80062 22.92697 51.37203
C 41.95538 24.47081 37.87786
C 41.93945 24.46594 39.37777
C 41.92352 24.46106 40.87768
C 41.90760 24.45618 42.37758
C 41.89167 24.45131 43.87749
C 41.87574 24.44643 45.37740
C 41.85982 24.44155 46.87731
C 41.84389 24.43667 48.37721
C 41.82796 24.43180 49.87712
C 41.81204 24.42692 51.37703
C 41.79611 24.42204 52.87694
C 41.78018 24.41716 54.37684
C 41.76426 24.41229 55.87675
C 41.74833 24.40741 57.37666
C 41.96679 25.97076 37.88286
C 41.95086 25.96589 39.38277
C 41.93494 25.96101 40.88267
C 41.91901 25.95613 42.38258
C 41.90308 25.95125 43.88249
C 41.88716 25.94638 45.38240
C 41.87123 25.94150 46.88230
C 41.85530 25.93662 48.38221
C 41.83938 25.93174 49.88212
C 41.82345 25.92687 51.38203
C 41.80752 25.92199 52.88193
C 41.79160 25.91711 54.38184
C 41.77567 25.91223 55.88175
C 41.75974 25.90736 57.38166
C 41.97821 27.47071 37.88786
C 41.96228 27.46583 39.38777
C 41.94635 27.46096 40.88767
C 41.93043 27.45608 42.38758
C 41.91450 27.45120 43.88749
C 41.89857 27.44632 45.38740
C 41.88265 27.44145 46.88730
C 41.86672 27.43657 48.38721
C 41.85079 27.43169 49.88712
C 41.83487 27.42681 51.38703
C 41.81894 27.42194 52.88693
C 41.80301 27.41706 54.38684
C 41.78709 27.41218 55.88675
C 41.77116 27.40730 57.38666
C 41.98962 28.97066 37.89286
C 41.97369 28.96578 39.39276
C 41.95777 28.96090 40.89267
C 41.94184 28.95603 42.39258
C 41.92591 28.95115 43.89249
C 41.90999 28.94627 45.39239
C 41.89406 28.94139 46.89230
C 41.87813 28.93652 48.39221
C 41.86221 28.93164 49.89212
C 41.84628 28.92676 51.39202
C 41.83035 28.92189 52.89193
C 41.81443 28.91701 54.39184
C 41.79850 28.91213 55.89175
C 41.98511 30.46573 39.39776
C 41.96918 30.46085 40.89767
C 41.95326 30.45598 42.39758
C 41.93733 30.45110 43.89749
C 41.92140 30.44622 45.39739
C 41.90548 30.44134 46.89730
C 41.88955 30.43647 48.39721
C 41.87362 30.43159 49.89712
C 41.85770 30.42671 51.39702
C 41.84177 30.42183 52.89693
C 41.82584 30.41696 54.39684
C 41.80992 30.41208 55.89675
C 41.98060 31.96080 40.90267
C 41.96467 31.95592 42.40258
C 41.94874 31.95105 43.90248
C 43.35278 21.43506 45.38329
C 43.33686 21.43019 46.88320
C 43.42791 22.95452 39.38866
C 43.41198 22.94964 40.88857
C 43.39605 22.94477 42.38847
C 43.38013 22.93989 43.88838
C 43.36420 22.93501 45.38829
C 43.34827 22.93013 46.88820
C 43.33235 22.92526 48.38810
C 43.31642 22.92038 49.88801
C 43.45525 24.45935 37.89375
C 43.43932 24.45447 39.39366
C 43.42339 24.44959 40.89356
C 43.40747 24.44472 42.39347
C 43.39154 24.43984 43.89338
C 43.37561 24.43496 45.39329
C 43.35969 24.43008 46.89319
C 43.34376 24.42521 48.39310
C 43.32783 24.42033 49.89301
C 43.31191 24.41545 51.39292
C 43.46666 25.95930 37.89875
C 43.45074 25.95442 39.39866
C 43.43481 25.94954 40.89856
C 43.41888 25.94466 42.39847
C 43.40296 25.93979 43.89838
C 43.38703 25.93491 45.39829
C 43.37110 25.93003 46.89819
C 43.35518 25.92515 48.39810
C 43.33925 25.92028 49.89801
C 43.32332 25.91540 51.39792
C 43.30740 25.91052 52.89782
C 43.29147 25.90564 54.39773
C 43.47808 27.45924 37.90375
C 43.46215 27.45437 39.40365
C 43.44622 27.44949 40.90356
C 43.43030 27.44461 42.40347
C 43.41437 27.43973 43.90338
C 43.39844 27.43486 45.40328
C 43.38252 27.42998 46.90319
C 43.36659 27.42510 48.40310
C 43.35066 27.42022 49.90301
C 43.33474 27.41535 51.40291
C 43.31881 27.41047 52.90282
C 43.30288 27.40559 54.40273
C 43.28696 27.40071 55.90264
C 43.48949 28.95919 37.90875
C 43.47357 28.95431 39.40865
C 43.45764 28.94944 40.90856
C 43.44171 28.94456 42.40847
C 43.42579 28.93968 43.90838
C 43.40986 28.93481 45.40828
C 43.39393 28.92993 46.90819
C 43.37801 28.92505 48.40810
C 43.36208 28.92017 49.90801
C 43.34615 28.91530 51.40791
C 43.33023 28.91042 52.90782
C 43.31430 28.90554 54.40773
C 43.29837 28.90066 55.90764
C 43.50091 30.45914 37.91374
C 43.48498 30.45426 39.41365
C 43.46905 30.44939 40.91356
C 43.45313 30.44451 42.41347
C 43.43720 30.43963 43.91337
C 43.42127 30.43475 45.41328
C 43.38942 30.42500 48.41310
C 43.37349 30.42012 49.91301
C 43.48047 31.94933 40.91856
C 43.46454 31.94446 42.41847
C 44.92778 22.94305 39.40455
C 44.91185 22.93818 40.90445
C 44.89592 22.93330 42.40436
C 44.88000 22.92842 43.90427
C 44.86407 22.92354 45.40418
C 44.84814 22.91867 46.90409
C 44.83222 22.91379 48.40399
C 44.95512 24.44788 37.90964
C 44.93919 24.44300 39.40955
C 44.92327 24.43813 40.90945
C 44.90734 24.43325 42.40936
C 44.89141 24.42837 43.90927
C 44.87549 24.42349 45.40918
C 44.85956 24.41862 46.90908
C 44.84363 24.41374 48.40899
C 44.82771 24.40886 49.90890
C 44.96653 25.94783 37.91464
C 44.95061 25.94295 39.41455
C 44.93468 25.93807 40.91445
C 44.91875 25.93320 42.41436
C 44.90283 25.92832 43.91427
C 44.88690 25.92344 45.41418
C 44.87097 25.91856 46.91408
C 44.85505 25.91369 48.41399
C 44.83912 25.90881 49.91390
C 44.97795 27.44778 37.91964
C 44.96202 27.44290 39.41954
C 44.94610 27.43802 40.91945
C 44.93017 27.43314 42.41936
C 44.91424 27.42827 43.91927
C 44.89832 27.42339 45.41917
C 44.88239 27.41851 46.91908
C 44.86646 27.41363 48.41899
C 44.98936 28.94773 37.92464
C 44.97344 28.94285 39.42454
C 44.95751 28.93797 40.92445
C 44.94158 28.93309 42.42436
C 44.92566 28.92822 43.92427
C 44.90973 28.92334 45.42417
C 44.89380 28.91846 46.92408
C 45.00078 30.44767 37.92963
C 44.98485 30.44280 39.42954
C 44.96893 30.43792 40.92945
C 44.95300 30.43304 42.42936
C 44.93707 30.42816 43.92926
C 44.98034 31.93787 40.93445
C 46.41172 22.92671 40.92034
C 46.37987 22.91695 43.92016
C 46.36394 22.91208 45.42007
C 46.34802 22.90720 46.91997
C 46.45499 24.43641 37.92553
C 46.43906 24.43154 39.42544
C 46.42314 24.42666 40.92534
C 46.40721 24.42178 42.42525
C 46.39128 24.41690 43.92516
C 46.37536 24.41203 45.42507
C 46.35943 24.40715 46.92497
C 46.34350 24.40227 48.42488
C 46.46641 25.93636 37.93053
C 46.45048 25.93148 39.43043
C 46.43455 25.92661 40.93034
C 46.41863 25.92173 42.43025
C 46.40270 25.91685 43.93016
C 46.38677 25.91197 45.43006
C 46.37085 25.90710 46.92997
C 46.35492 25.90222 48.42988
C 46.47782 27.43631 37.93553
C 46.46189 27.43143 39.43543
C 46.44597 27.42655 40.93534
C 46.43004 27.42168 42.43525
C 46.41411 27.41680 43.93516
C 46.39819 27.41192 45.43506
C 46.38226 27.40704 46.93497
C 46.48924 28.93626 37.94052
C 46.47331 28.93138 39.44043
C 46.45738 28.92650 40.94034
C 46.44146 28.92163 42.44025
C 46.42553 28.91675 43.94015
C 46.40960 28.91187 45.44006
C 46.50065 30.43621 37.94552
C 46.48472 30.43133 39.44543
C 46.46880 30.42645 40.94534
C 46.45287 30.42157 42.44525
C 47.93894 24.42007 39.44132
C 47.92301 24.41519 40.94123
C 47.90708 24.41031 42.44114
C 47.96628 25.92489 37.94642
C 47.95035 25.92002 39.44632
C 47.93443 25.91514 40.94623
C 47.91850 25.91026 42.44614
C 47.90257 25.90538 43.94605
C 47.88665 25.90051 45.44595
C 47.97769 27.42484 37.95141
C 47.96177 27.41996 39.45132
C 47.94584 27.41509 40.95123
C 47.92991 27.41021 42.45114
C 47.91399 27.40533 43.95104
C 47.97318 28.91991 39.45632
C 47.95725 28.91504 40.95623
C 47.94133 28.91016 42.45614
C 49.43430 25.90367 40.96212
C 49.44571 27.40362 40.96712
