649
comment
C 33.05187 22.92009 54.55056
C 33.05334 22.93542 56.05048
C 33.05481 22.95075 57.55040
C 33.05627 22.96609 59.05032
C 33.01822 24.41963 54.53526
C 33.01969 24.43496 56.03518
C 33.02115 24.45030 57.53510
C 33.02262 24.46563 59.03503
C 32.98310 25.90384 53.02005
C 32.98457 25.91917 54.51997
C 32.98603 25.93451 56.01989
C 32.98750 25.94984 57.51981
C 32.98896 25.96518 59.01973
C 32.94505 27.35738 48.50499
C 32.94652 27.37272 50.00491
C 32.94798 27.38805 51.50483
C 32.94945 27.40339 53.00475
C 32.95092 27.41872 54.50467
C 32.95238 27.43405 56.00459
C 32.95385 27.44939 57.50451
C 32.90993 28.84160 46.98977
C 32.91140 28.85693 48.48969
C 32.91287 28.87226 49.98961
C 32.91433 28.88760 51.48953
C 32.91726 28.91826 54.48937
C 32.91873 28.93360 55.98929
C 32.87628 30.34114 46.97447
C 32.87775 30.35647 48.47439
C 32.87921 30.37181 49.97431
C 32.88068 30.38714 51.47423
C 32.84409 31.85602 48.45909
C 32.84556 31.87135 49.95902
C 34.58515 21.45418 54.56405
C 34.58661 21.46951 56.06397
C 34.58808 21.48485 57.56389
C 34.55150 22.95372 54.54875
C 34.55296 22.96906 56.04867
C 34.55443 22.98439 57.54859
C 34.55589 22.99972 59.04851
C 34.51638 24.43793 53.03353
C 34.51784 24.45327 54.53345
C 34.51931 24.46860 56.03337
C 34.52077 24.48393 57.53330
C 34.52224 24.49927 59.03322
C 34.52371 24.51460 60.53314
C 34.47833 25.89148 48.51847
C 34.47979 25.90681 50.01839
C 34.48126 25.92214 51.51832
C 34.48272 25.93748 53.01824
C 34.48419 25.95281 54.51816
C 34.48566 25.96814 56.01808
C 34.48712 25.98348 57.51800
C 34.48859 25.99881 59.01792
C 34.49005 26.01415 60.51784
C 34.44321 27.37569 47.00326
C 34.44468 27.39102 48.50318
C 34.44614 27.40635 50.00310
C 34.44761 27.42169 51.50302
C 34.44907 27.43702 53.00294
C 34.45054 27.45236 54.50286
C 34.45200 27.46769 56.00278
C 34.45347 27.48302 57.50270
C 34.45493 27.49836 59.00262
C 34.40956 28.87523 46.98796
C 34.41102 28.89057 48.48788
C 34.41249 28.90590 49.98780
C 34.41395 28.92123 51.48772
C 34.41542 28.93657 52.98764
C 34.41688 28.95190 54.48756
C 34.41835 28.96723 55.98748
C 34.41982 28.98257 57.48740
C 34.37590 30.37478 46.97266
C 34.37737 30.39011 48.47258
C 34.37883 30.40544 49.97250
C 34.38030 30.42078 51.47242
C 34.38177 30.43611 52.97235
C 34.38323 30.45144 54.47227
C 34.34225 31.87432 46.95736
C 34.34372 31.88965 48.45729
C 34.34518 31.90499 49.95721
C 34.34665 31.92032 51.45713
C 36.08477 21.48781 54.56224
C 36.08624 21.50315 56.06216
C 36.08770 21.51848 57.56208
C 36.08917 21.53382 59.06200
C 36.04965 22.97202 53.04702
C 36.05112 22.98736 54.54694
C 36.05258 23.00269 56.04686
C 36.05405 23.01803 57.54678
C 36.05551 23.03336 59.04670
C 36.05698 23.04869 60.54663
C 36.01014 24.41023 47.03204
C 36.01160 24.42557 48.53196
C 36.01307 24.44090 50.03188
C 36.01453 24.45624 51.53180
C 36.01600 24.47157 53.03172
C 36.01746 24.48690 54.53164
C 36.01893 24.50224 56.03157
C 36.02040 24.51757 57.53149
C 36.02186 24.53290 59.03141
C 36.02333 24.54824 60.53133
C 35.97502 25.89445 45.51682
C 35.97648 25.90978 47.01674
C 35.97795 25.92511 48.51666
C 35.97942 25.94045 50.01659
C 35.98088 25.95578 51.51651
C 35.98235 25.97111 53.01643
C 35.98381 25.98645 54.51635
C 35.98528 26.00178 56.01627
C 35.98674 26.01711 57.51619
C 35.98821 26.03245 59.01611
C 35.98967 26.04778 60.51603
C 35.94137 27.39399 45.50153
C 35.94283 27.40932 47.00145
C 35.94430 27.42466 48.50137
C 35.94576 27.43999 50.00129
C 35.94723 27.45532 51.50121
C 35.94869 27.47066 53.00113
C 35.95016 27.48599 54.50105
C 35.95162 27.50133 56.00097
C 35.95309 27.51666 57.50089
C 35.95456 27.53199 59.00081
C 35.95602 27.54733 60.50073
C 35.90918 28.90887 46.98615
C 35.91064 28.92420 48.48607
C 35.91211 28.93954 49.98599
C 35.91357 28.95487 51.48591
C 35.91504 28.97020 52.98583
C 35.91651 28.98554 54.48575
C 35.91797 29.00087 55.98567
C 35.91944 29.01620 57.48560
C 35.87553 30.40841 46.97085
C 35.87699 30.42375 48.47077
C 35.87846 30.43908 49.97069
C 35.87992 30.45441 51.47062
C 35.88139 30.46975 52.97054
C 35.88285 30.48508 54.47046
C 35.88432 30.50041 55.97038
C 35.84187 31.90796 46.95556
C 35.84334 31.92329 48.45548
C 35.84480 31.93862 49.95540
C 35.84627 31.95396 51.45532
C 35.84773 31.96929 52.95524
C 35.81115 33.43817 49.94010
C 37.58439 21.52145 54.56043
C 37.58586 21.53678 56.06035
C 37.58732 21.55212 57.56027
C 37.58879 21.56745 59.06019
C 37.54195 22.92899 45.54561
C 37.54341 22.94433 47.04553
C 37.54488 22.95966 48.54545
C 37.54634 22.97499 50.04537
C 37.54781 22.99033 51.54529
C 37.54927 23.00566 53.04521
C 37.55074 23.02099 54.54513
C 37.55221 23.03633 56.04505
C 37.55367 23.05166 57.54497
C 37.55514 23.06700 59.04490
C 37.55660 23.08233 60.54482
C 37.50683 24.41320 44.03039
C 37.50829 24.42854 45.53031
C 37.50976 24.44387 47.03023
C 37.51122 24.45920 48.53015
C 37.51269 24.47454 50.03007
C 37.51416 24.48987 51.52999
C 37.51562 24.50521 53.02991
C 37.51709 24.52054 54.52984
C 37.51855 24.53587 56.02976
C 37.52002 24.55121 57.52968
C 37.52148 24.56654 59.02960
C 37.52295 24.58187 60.52952
C 37.47171 25.89741 42.51517
C 37.47318 25.91275 44.01509
C 37.47464 25.92808 45.51501
C 37.47611 25.94342 47.01493
C 37.47757 25.95875 48.51486
C 37.47904 25.97408 50.01478
C 37.48050 25.98942 51.51470
C 37.48197 26.00475 53.01462
C 37.48343 26.02008 54.51454
C 37.48490 26.03542 56.01446
C 37.48636 26.05075 57.51438
C 37.48783 26.06608 59.01430
C 37.48930 26.08142 60.51422
C 37.43806 27.39696 42.49987
C 37.43952 27.41229 43.99980
C 37.44099 27.42763 45.49972
C 37.44245 27.44296 46.99964
C 37.44392 27.45829 48.49956
C 37.44538 27.47363 49.99948
C 37.44685 27.48896 51.49940
C 37.44832 27.50429 52.99932
C 37.44978 27.51963 54.49924
C 37.45125 27.53496 55.99916
C 37.45271 27.55030 57.49908
C 37.45418 27.56563 58.99900
C 37.45564 27.58096 60.49893
C 37.40440 28.89650 42.48458
C 37.40587 28.91184 43.98450
C 37.40733 28.92717 45.48442
C 37.40880 28.94250 46.98434
C 37.41027 28.95784 48.48426
C 37.41173 28.97317 49.98418
C 37.41320 28.98851 51.48410
C 37.41466 29.00384 52.98402
C 37.41613 29.01917 54.48394
C 37.41759 29.03451 55.98387
C 37.41906 29.04984 57.48379
C 37.37222 30.41138 43.96920
C 37.37368 30.42671 45.46912
C 37.37515 30.44205 46.96904
C 37.37661 30.45738 48.46896
C 37.37808 30.47272 49.96889
C 37.37954 30.48805 51.46881
C 37.38101 30.50338 52.96873
C 37.38247 30.51872 54.46865
C 37.38394 30.53405 55.96857
C 37.34149 31.94159 46.95375
C 37.34296 31.95693 48.45367
C 37.34442 31.97226 49.95359
C 37.34589 31.98759 51.45351
C 37.34736 32.00293 52.95343
C 37.34882 32.01826 54.45335
C 37.30931 33.45647 48.43837
C 37.31077 33.47180 49.93829
C 37.31224 33.48714 51.43821
C 39.07522 21.46308 45.55910
C 39.07669 21.47842 47.05902
C 39.07815 21.49375 48.55894
C 39.08401 21.55509 54.55862
C 39.08548 21.57042 56.05854
C 39.08695 21.58575 57.55846
C 39.04157 22.96263 45.54380
C 39.04303 22.97796 47.04372
C 39.04450 22.99330 48.54364
C 39.04596 23.00863 50.04356
C 39.04743 23.02396 51.54348
C 39.04890 23.03930 53.04340
C 39.05036 23.05463 54.54332
C 39.05183 23.06996 56.04324
C 39.05329 23.08530 57.54317
C 39.05476 23.10063 59.04309
C 39.00498 24.43151 42.52866
C 39.00645 24.44684 44.02858
C 39.00792 24.46217 45.52850
C 39.00938 24.47751 47.02842
C 39.01085 24.49284 48.52834
C 39.01231 24.50817 50.02826
C 39.01378 24.52351 51.52818
C 39.01524 24.53884 53.02811
C 39.01671 24.55418 54.52803
C 39.01817 24.56951 56.02795
C 39.01964 24.58484 57.52787
C 39.02110 24.60018 59.02779
C 39.02257 24.61551 60.52771
C 38.96987 25.91572 41.01344
C 38.97133 25.93105 42.51336
C 38.97280 25.94638 44.01328
C 38.97426 25.96172 45.51320
C 38.97573 25.97705 47.01313
C 38.97719 25.99239 48.51305
C 38.97866 26.00772 50.01297
C 38.98012 26.02305 51.51289
C 38.98159 26.03839 53.01281
C 38.98306 26.05372 54.51273
C 38.98452 26.06905 56.01265
C 38.98599 26.08439 57.51257
C 38.98745 26.09972 59.01249
C 38.98892 26.11505 60.51241
C 38.93621 27.41526 40.99814
C 38.93768 27.43060 42.49807
C 38.93914 27.44593 43.99799
C 38.94061 27.46126 45.49791
C 38.94207 27.47660 46.99783
C 38.94354 27.49193 48.49775
C 38.94501 27.50726 49.99767
C 38.94647 27.52260 51.49759
C 38.94794 27.53793 52.99751
C 38.94940 27.55326 54.49743
C 38.95087 27.56860 55.99735
C 38.95233 27.58393 57.49727
C 38.95380 27.59927 58.99720
C 38.90256 28.91481 40.98285
C 38.90403 28.93014 42.48277
C 38.90549 28.94547 43.98269
C 38.90696 28.96081 45.48261
C 38.90842 28.97614 46.98253
C 38.90989 28.99147 48.48245
C 38.91135 29.00681 49.98237
C 38.91282 29.02214 51.48229
C 38.91428 29.03748 52.98221
C 38.91575 29.05281 54.48214
C 38.91721 29.06814 55.98206
C 38.91868 29.08348 57.48198
C 38.87037 30.42968 42.46747
C 38.87184 30.44502 43.96739
C 38.87330 30.46035 45.46731
C 38.87477 30.47569 46.96723
C 38.87623 30.49102 48.46716
C 38.87770 30.50635 49.96708
C 38.87917 30.52169 51.46700
C 38.88063 30.53702 52.96692
C 38.88210 30.55235 54.46684
C 38.88356 30.56769 55.96676
C 38.88503 30.58302 57.46668
C 38.84112 31.97523 46.95194
C 38.84258 31.99056 48.45186
C 38.84405 32.00590 49.95178
C 38.84551 32.02123 51.45170
C 38.84698 32.03656 52.95162
C 38.84844 32.05190 54.45154
C 38.84991 32.06723 55.95146
C 38.81039 33.50544 49.93648
C 38.81186 33.52077 51.43640
C 40.57484 21.49672 45.55729
C 40.57631 21.51205 47.05721
C 40.57777 21.52739 48.55713
C 40.57924 21.54272 50.05705
C 40.53972 22.98093 44.04207
C 40.54119 22.99627 45.54199
C 40.54266 23.01160 47.04191
C 40.54412 23.02693 48.54183
C 40.54559 23.04227 50.04175
C 40.54705 23.05760 51.54167
C 40.54852 23.07293 53.04159
C 40.54998 23.08827 54.54151
C 40.55145 23.10360 56.04144
C 40.55291 23.11893 57.54136
C 40.50461 24.46514 42.52685
C 40.50607 24.48048 44.02677
C 40.50754 24.49581 45.52669
C 40.50900 24.51114 47.02661
C 40.51047 24.52648 48.52653
C 40.51193 24.54181 50.02645
C 40.51340 24.55714 51.52638
C 40.51486 24.57248 53.02630
C 40.51633 24.58781 54.52622
C 40.51780 24.60315 56.02614
C 40.51926 24.61848 57.52606
C 40.52073 24.63381 59.02598
C 40.46802 25.93402 39.51171
C 40.46949 25.94935 41.01163
C 40.47095 25.96469 42.51155
C 40.47242 25.98002 44.01147
C 40.47388 25.99535 45.51140
C 40.47535 26.01069 47.01132
C 40.47682 26.02602 48.51124
C 40.47828 26.04136 50.01116
C 40.47975 26.05669 51.51108
C 40.48121 26.07202 53.01100
C 40.48268 26.08736 54.51092
C 40.48414 26.10269 56.01084
C 40.48561 26.11802 57.51076
C 40.48707 26.13336 59.01068
C 40.43437 27.43356 39.49641
C 40.43583 27.44890 40.99634
C 40.43730 27.46423 42.49626
C 40.43877 27.47957 43.99618
C 40.44023 27.49490 45.49610
C 40.44170 27.51023 46.99602
C 40.44316 27.52557 48.49594
C 40.44463 27.54090 49.99586
C 40.44609 27.55623 51.49578
C 40.44756 27.57157 52.99570
C 40.44902 27.58690 54.49562
C 40.45049 27.60223 55.99554
C 40.45195 27.61757 57.49547
C 40.45342 27.63290 58.99539
C 40.40072 28.93311 39.48112
C 40.40218 28.94844 40.98104
C 40.40365 28.96378 42.48096
C 40.40511 28.97911 43.98088
C 40.40658 28.99444 45.48080
C 40.40804 29.00978 46.98072
C 40.40951 29.02511 48.48064
C 40.41097 29.04044 49.98056
C 40.41244 29.05578 51.48048
C 40.41391 29.07111 52.98041
C 40.41537 29.08645 54.48033
C 40.41684 29.10178 55.98025
C 40.41830 29.11711 57.48017
C 40.36706 30.43265 39.46582
C 40.36853 30.44799 40.96574
C 40.36999 30.46332 42.46566
C 40.37146 30.47865 43.96558
C 40.37292 30.49399 45.46550
C 40.37439 30.50932 46.96543
C 40.37586 30.52466 48.46535
C 40.37732 30.53999 49.96527
C 40.37879 30.55532 51.46519
C 40.38025 30.57066 52.96511
C 40.38172 30.58599 54.46503
C 40.38318 30.60132 55.96495
C 40.33634 31.96286 42.45037
C 40.34220 32.02420 48.45005
C 40.34367 32.03953 49.94997
C 40.34513 32.05487 51.44989
C 40.34660 32.07020 52.94981
C 40.34806 32.08553 54.44973
C 40.34953 32.10087 55.94965
C 42.07446 21.53036 45.55548
C 42.07593 21.54569 47.05540
C 42.07740 21.56102 48.55532
C 42.03935 23.01457 44.04026
C 42.04081 23.02990 45.54018
C 42.04228 23.04524 47.04010
C 42.04374 23.06057 48.54002
C 42.04521 23.07590 50.03994
C 42.04667 23.09124 51.53986
C 41.99983 24.45278 38.02528
C 42.00130 24.46811 39.52520
C 42.00276 24.48345 41.02512
C 42.00423 24.49878 42.52504
C 42.00569 24.51411 44.02496
C 42.00716 24.52945 45.52488
C 42.00862 24.54478 47.02480
C 42.01009 24.56011 48.52472
C 42.01156 24.57545 50.02465
C 42.01302 24.59078 51.52457
C 42.01449 24.60611 53.02449
C 42.01595 24.62145 54.52441
C 42.01742 24.63678 56.02433
C 42.01888 24.65212 57.52425
C 41.96618 25.95232 38.00998
C 41.96764 25.96766 39.50990
C 41.96911 25.98299 41.00982
C 41.97057 25.99832 42.50974
C 41.97204 26.01366 44.00967
C 41.97351 26.02899 45.50959
C 41.97497 26.04432 47.00951
C 41.97644 26.05966 48.50943
C 41.97790 26.07499 50.00935
C 41.97937 26.09033 51.50927
C 41.98083 26.10566 53.00919
C 41.98230 26.12099 54.50911
C 41.98376 26.13633 56.00903
C 41.98523 26.15166 57.50895
C 41.93253 27.45187 37.99468
C 41.93399 27.46720 39.49461
C 41.93546 27.48253 40.99453
C 41.93692 27.49787 42.49445
C 41.93839 27.51320 43.99437
C 41.93985 27.52854 45.49429
C 41.94132 27.54387 46.99421
C 41.94278 27.55920 48.49413
C 41.94425 27.57454 49.99405
C 41.94571 27.58987 51.49397
C 41.94718 27.60520 52.99389
C 41.94865 27.62054 54.49381
C 41.95011 27.63587 55.99374
C 41.95158 27.65120 57.49366
C 41.89887 28.95141 37.97939
C 41.90034 28.96675 39.47931
C 41.90180 28.98208 40.97923
C 41.90327 28.99741 42.47915
C 41.90473 29.01275 43.97907
C 41.90620 29.02808 45.47899
C 41.90767 29.04341 46.97891
C 41.90913 29.05875 48.47883
C 41.91060 29.07408 49.97875
C 41.91206 29.08941 51.47868
C 41.91353 29.10475 52.97860
C 41.91499 29.12008 54.47852
C 41.91646 29.13542 55.97844
C 41.86668 30.46629 39.46401
C 41.86815 30.48162 40.96393
C 41.86962 30.49696 42.46385
C 41.87108 30.51229 43.96377
C 41.87255 30.52762 45.46370
C 41.87401 30.54296 46.96362
C 41.87548 30.55829 48.46354
C 41.87694 30.57363 49.96346
C 41.87841 30.58896 51.46338
C 41.87987 30.60429 52.96330
C 41.88134 30.61963 54.46322
C 41.88281 30.63496 55.96314
C 41.83450 31.98117 40.94864
C 41.83596 31.99650 42.44856
C 41.83743 32.01183 43.94848
C 43.57409 21.56399 45.55367
C 43.57555 21.57933 47.05359
C 43.53457 23.00220 39.53869
C 43.53604 23.01754 41.03861
C 43.53750 23.03287 42.53853
C 43.53897 23.04820 44.03845
C 43.54043 23.06354 45.53837
C 43.54190 23.07887 47.03829
C 43.54336 23.09421 48.53821
C 43.54483 23.10954 50.03813
C 43.49945 24.48641 38.02347
C 43.50092 24.50175 39.52339
C 43.50238 24.51708 41.02331
C 43.50385 24.53242 42.52323
C 43.50532 24.54775 44.02315
C 43.50678 24.56308 45.52307
C 43.50825 24.57842 47.02299
C 43.50971 24.59375 48.52292
C 43.51118 24.60908 50.02284
C 43.51264 24.62442 51.52276
C 43.46580 25.98596 38.00817
C 43.46727 26.00129 39.50809
C 43.46873 26.01663 41.00801
C 43.47020 26.03196 42.50794
C 43.47166 26.04729 44.00786
C 43.47313 26.06263 45.50778
C 43.47459 26.07796 47.00770
C 43.47606 26.09329 48.50762
C 43.47752 26.10863 50.00754
C 43.47899 26.12396 51.50746
C 43.48046 26.13930 53.00738
C 43.48192 26.15463 54.50730
C 43.43215 27.48550 37.99288
C 43.43361 27.50084 39.49280
C 43.43508 27.51617 40.99272
C 43.43654 27.53150 42.49264
C 43.43801 27.54684 43.99256
C 43.43947 27.56217 45.49248
C 43.44094 27.57751 46.99240
C 43.44241 27.59284 48.49232
C 43.44387 27.60817 49.99224
C 43.44534 27.62351 51.49216
C 43.44680 27.63884 52.99208
C 43.44827 27.65417 54.49201
C 43.44973 27.66951 55.99193
C 43.39849 28.98505 37.97758
C 43.39996 29.00038 39.47750
C 43.40142 29.01572 40.97742
C 43.40289 29.03105 42.47734
C 43.40436 29.04638 43.97726
C 43.40582 29.06172 45.47718
C 43.40729 29.07705 46.97710
C 43.40875 29.09238 48.47702
C 43.41022 29.10772 49.97695
C 43.41168 29.12305 51.47687
C 43.41315 29.13838 52.97679
C 43.41461 29.15372 54.47671
C 43.41608 29.16905 55.97663
C 43.36484 30.48459 37.96228
C 43.36631 30.49993 39.46220
C 43.36777 30.51526 40.96212
C 43.36924 30.53059 42.46204
C 43.37070 30.54593 43.96197
C 43.37217 30.56126 45.46189
C 43.37510 30.59193 48.46173
C 43.37656 30.60726 49.96165
C 43.33412 32.01480 40.94683
C 43.33558 32.03014 42.44675
C 45.03419 23.03584 39.53688
C 45.03566 23.05117 41.03680
C 45.03712 23.06651 42.53672
C 45.03859 23.08184 44.03664
C 45.04006 23.09717 45.53656
C 45.04152 23.11251 47.03648
C 45.04299 23.12784 48.53640
C 44.99907 24.52005 38.02166
C 45.00054 24.53538 39.52158
C 45.00201 24.55072 41.02150
C 45.00347 24.56605 42.52142
C 45.00494 24.58139 44.02134
C 45.00640 24.59672 45.52126
C 45.00787 24.61205 47.02119
C 45.00933 24.62739 48.52111
C 45.01080 24.64272 50.02103
C 44.96542 26.01960 38.00636
C 44.96689 26.03493 39.50628
C 44.96835 26.05026 41.00621
C 44.96982 26.06560 42.50613
C 44.97128 26.08093 44.00605
C 44.97275 26.09626 45.50597
C 44.97421 26.11160 47.00589
C 44.97568 26.12693 48.50581
C 44.97715 26.14226 50.00573
C 44.93177 27.51914 37.99107
C 44.93323 27.53447 39.49099
C 44.93470 27.54981 40.99091
C 44.93617 27.56514 42.49083
C 44.93763 27.58047 43.99075
C 44.93910 27.59581 45.49067
C 44.94056 27.61114 46.99059
C 44.94203 27.62648 48.49051
C 44.89812 29.01868 37.97577
C 44.89958 29.03402 39.47569
C 44.90105 29.04935 40.97561
C 44.90251 29.06469 42.47553
C 44.90398 29.08002 43.97545
C 44.90544 29.09535 45.47537
C 44.90691 29.11069 46.97529
C 44.86446 30.51823 37.96047
C 44.86593 30.53356 39.46039
C 44.86739 30.54890 40.96031
C 44.86886 30.56423 42.46024
C 44.87032 30.57956 43.96016
C 44.83374 32.04844 40.94502
C 46.53528 23.08481 41.03499
C 46.53821 23.11548 44.03483
C 46.53968 23.13081 45.53475
C 46.54114 23.14614 47.03467
C 46.49870 24.55369 38.01985
C 46.50016 24.56902 39.51977
C 46.50163 24.58435 41.01969
C 46.50309 24.59969 42.51961
C 46.50456 24.61502 44.01953
C 46.50602 24.63036 45.51946
C 46.50749 24.64569 47.01938
C 46.50896 24.66102 48.51930
C 46.46504 26.05323 38.00455
C 46.46651 26.06857 39.50448
C 46.46797 26.08390 41.00440
C 46.46944 26.09923 42.50432
C 46.47091 26.11457 44.00424
C 46.47237 26.12990 45.50416
C 46.47384 26.14523 47.00408
C 46.47530 26.16057 48.50400
C 46.43139 27.55278 37.98926
C 46.43286 27.56811 39.48918
C 46.43432 27.58344 40.98910
C 46.43579 27.59878 42.48902
C 46.43725 27.61411 43.98894
C 46.43872 27.62944 45.48886
C 46.44018 27.64478 46.98878
C 46.39774 29.05232 37.97396
C 46.39920 29.06765 39.47388
C 46.40067 29.08299 40.97380
C 46.40213 29.09832 42.47372
C 46.40360 29.11366 43.97364
C 46.40506 29.12899 45.47356
C 46.36408 30.55186 37.95866
C 46.36555 30.56720 39.45858
C 46.36702 30.58253 40.95851
C 46.36848 30.59787 42.45843
C 47.99978 24.60266 39.51796
C 48.00125 24.61799 41.01788
C 48.00271 24.63332 42.51780
C 47.96467 26.08687 38.00275
C 47.96613 26.10220 39.50267
C 47.96760 26.11754 41.00259
C 47.96906 26.13287 42.50251
C 47.97053 26.14820 44.00243
C 47.97199 26.16354 45.50235
C 47.93101 27.58641 37.98745
C 47.93248 27.60175 39.48737
C 47.93394 27.61708 40.98729
C 47.93541 27.63241 42.48721
C 47.93687 27.64775 43.98713
C 47.89882 29.10129 39.47207
C 47.90029 29.11662 40.97199
C 47.90176 29.13196 42.47191
C 49.46722 26.15117 41.00078
C 49.43356 27.65072 40.98548
