649
comment
C 33.30844 22.81869 54.71693
C 33.30662 22.82248 56.21692
C 33.30479 22.82626 57.71691
C 33.30297 22.83004 59.21691
C 33.28407 24.31849 54.71311
C 33.28225 24.32227 56.21311
C 33.28042 24.32606 57.71310
C 33.27860 24.32984 59.21309
C 33.26152 25.81450 53.20930
C 33.25970 25.81829 54.70930
C 33.25788 25.82207 56.20929
C 33.25605 25.82585 57.70929
C 33.25423 25.82964 59.20928
C 33.24263 27.30295 48.70551
C 33.24080 27.30673 50.20550
C 33.23898 27.31051 51.70550
C 33.23715 27.31430 53.20549
C 33.23533 27.31808 54.70549
C 33.23351 27.32187 56.20548
C 33.23168 27.32565 57.70547
C 33.22008 28.79896 47.20170
C 33.21826 28.80274 48.70170
C 33.21643 28.80653 50.20169
C 33.21461 28.81031 51.70168
C 33.21096 28.81788 54.70167
C 33.20914 28.82166 56.20167
C 33.19571 30.29876 47.19789
C 33.19389 30.30254 48.69788
C 33.19206 30.30633 50.19788
C 33.19024 30.31011 51.69787
C 33.16952 31.80234 48.69407
C 33.16769 31.80612 50.19406
C 34.83261 21.34327 54.72250
C 34.83079 21.34705 56.22249
C 34.82896 21.35084 57.72249
C 34.80824 22.84307 54.71869
C 34.80642 22.84685 56.21868
C 34.80459 22.85063 57.71868
C 34.80277 22.85442 59.21867
C 34.78569 24.33908 53.21488
C 34.78387 24.34286 54.71487
C 34.78205 24.34665 56.21487
C 34.78022 24.35043 57.71486
C 34.77840 24.35422 59.21486
C 34.77658 24.35800 60.71485
C 34.76680 25.82752 48.71108
C 34.76497 25.83131 50.21108
C 34.76315 25.83509 51.71107
C 34.76132 25.83888 53.21107
C 34.75950 25.84266 54.71106
C 34.75768 25.84644 56.21105
C 34.75585 25.85023 57.71105
C 34.75403 25.85401 59.21104
C 34.75221 25.85780 60.71104
C 34.74425 27.32354 47.20728
C 34.74243 27.32732 48.70727
C 34.74060 27.33110 50.20726
C 34.73878 27.33489 51.70726
C 34.73696 27.33867 53.20725
C 34.73513 27.34246 54.70725
C 34.73331 27.34624 56.20724
C 34.73148 27.35003 57.70724
C 34.72966 27.35381 59.20723
C 34.71988 28.82333 47.20346
C 34.71806 28.82712 48.70346
C 34.71623 28.83090 50.20345
C 34.71441 28.83469 51.70345
C 34.71259 28.83847 53.20344
C 34.71076 28.84225 54.70343
C 34.70894 28.84604 56.20343
C 34.70711 28.84982 57.70342
C 34.69551 30.32313 47.19965
C 34.69369 30.32691 48.69964
C 34.69186 30.33070 50.19964
C 34.69004 30.33448 51.69963
C 34.68822 30.33827 53.19963
C 34.68639 30.34205 54.69962
C 34.67114 31.82293 47.19584
C 34.66932 31.82671 48.69583
C 34.66749 31.83050 50.19582
C 34.66567 31.83428 51.69582
C 36.33241 21.36764 54.72426
C 36.33059 21.37143 56.22426
C 36.32876 21.37521 57.72425
C 36.32694 21.37899 59.22424
C 36.30986 22.86366 53.22046
C 36.30804 22.86744 54.72045
C 36.30622 22.87122 56.22044
C 36.30439 22.87501 57.72044
C 36.30257 22.87879 59.22043
C 36.30075 22.88258 60.72043
C 36.29279 24.34832 47.21667
C 36.29097 24.35210 48.71666
C 36.28914 24.35588 50.21665
C 36.28732 24.35967 51.71665
C 36.28550 24.36345 53.21664
C 36.28367 24.36724 54.71664
C 36.28185 24.37102 56.21663
C 36.28002 24.37480 57.71662
C 36.27820 24.37859 59.21662
C 36.27638 24.38237 60.71661
C 36.27024 25.84433 45.71286
C 36.26842 25.84811 47.21285
C 36.26660 25.85190 48.71285
C 36.26477 25.85568 50.21284
C 36.26295 25.85947 51.71283
C 36.26113 25.86325 53.21283
C 36.25930 25.86703 54.71282
C 36.25748 25.87082 56.21282
C 36.25565 25.87460 57.71281
C 36.25383 25.87839 59.21280
C 36.25201 25.88217 60.71280
C 36.24588 27.34413 45.70904
C 36.24405 27.34791 47.20904
C 36.24223 27.35169 48.70903
C 36.24040 27.35548 50.20903
C 36.23858 27.35926 51.70902
C 36.23676 27.36305 53.20902
C 36.23493 27.36683 54.70901
C 36.23311 27.37062 56.20900
C 36.23129 27.37440 57.70900
C 36.22946 27.37818 59.20899
C 36.22764 27.38197 60.70899
C 36.21968 28.84771 47.20523
C 36.21786 28.85149 48.70522
C 36.21603 28.85528 50.20521
C 36.21421 28.85906 51.70521
C 36.21239 28.86284 53.20520
C 36.21056 28.86663 54.70520
C 36.20874 28.87041 56.20519
C 36.20692 28.87420 57.70518
C 36.19531 30.34750 47.20141
C 36.19349 30.35129 48.70141
C 36.19167 30.35507 50.20140
C 36.18984 30.35886 51.70139
C 36.18802 30.36264 53.20139
C 36.18619 30.36643 54.70138
C 36.18437 30.37021 56.20138
C 36.17094 31.84730 47.19760
C 36.16912 31.85109 48.69759
C 36.16730 31.85487 50.19759
C 36.16547 31.85865 51.69758
C 36.16365 31.86244 53.19758
C 36.14293 33.35467 50.19377
C 37.83221 21.39202 54.72602
C 37.83039 21.39580 56.22602
C 37.82856 21.39958 57.72601
C 37.82674 21.40337 59.22601
C 37.81878 22.86911 45.72225
C 37.81696 22.87289 47.22224
C 37.81514 22.87668 48.72223
C 37.81331 22.88046 50.22223
C 37.81149 22.88424 51.72222
C 37.80967 22.88803 53.22222
C 37.80784 22.89181 54.72221
C 37.80602 22.89560 56.22221
C 37.80419 22.89938 57.72220
C 37.80237 22.90317 59.22219
C 37.80055 22.90695 60.72219
C 37.79624 24.36512 44.21844
C 37.79441 24.36891 45.71843
C 37.79259 24.37269 47.21843
C 37.79077 24.37647 48.71842
C 37.78894 24.38026 50.21842
C 37.78712 24.38404 51.71841
C 37.78530 24.38783 53.21840
C 37.78347 24.39161 54.71840
C 37.78165 24.39539 56.21839
C 37.77982 24.39918 57.71839
C 37.77800 24.40296 59.21838
C 37.77618 24.40675 60.71837
C 37.77369 25.86113 42.71463
C 37.77187 25.86492 44.21463
C 37.77005 25.86870 45.71462
C 37.76822 25.87249 47.21461
C 37.76640 25.87627 48.71461
C 37.76457 25.88006 50.21460
C 37.76275 25.88384 51.71460
C 37.76093 25.88762 53.21459
C 37.75910 25.89141 54.71458
C 37.75728 25.89519 56.21458
C 37.75546 25.89898 57.71457
C 37.75363 25.90276 59.21457
C 37.75181 25.90654 60.71456
C 37.74932 27.36093 42.71082
C 37.74750 27.36472 44.21081
C 37.74568 27.36850 45.71081
C 37.74385 27.37228 47.21080
C 37.74203 27.37607 48.71079
C 37.74020 27.37985 50.21079
C 37.73838 27.38364 51.71078
C 37.73656 27.38742 53.21078
C 37.73473 27.39120 54.71077
C 37.73291 27.39499 56.21077
C 37.73109 27.39877 57.71076
C 37.72926 27.40256 59.21075
C 37.72744 27.40634 60.71075
C 37.72495 28.86073 42.70700
C 37.72313 28.86451 44.20700
C 37.72131 28.86830 45.70699
C 37.71948 28.87208 47.20699
C 37.71766 28.87587 48.70698
C 37.71584 28.87965 50.20698
C 37.71401 28.88343 51.70697
C 37.71219 28.88722 53.20696
C 37.71036 28.89100 54.70696
C 37.70854 28.89479 56.20695
C 37.70672 28.89857 57.70695
C 37.69876 30.36431 44.20319
C 37.69694 30.36809 45.70318
C 37.69511 30.37188 47.20317
C 37.69329 30.37566 48.70317
C 37.69147 30.37945 50.20316
C 37.68964 30.38323 51.70316
C 37.68782 30.38702 53.20315
C 37.68599 30.39080 54.70314
C 37.68417 30.39458 56.20314
C 37.67074 31.87168 47.19936
C 37.66892 31.87546 48.69935
C 37.66710 31.87924 50.19935
C 37.66527 31.88303 51.69934
C 37.66345 31.88681 53.19934
C 37.66163 31.89060 54.69933
C 37.64455 33.37526 48.69554
C 37.64273 33.37904 50.19554
C 37.64090 33.38283 51.69553
C 39.34295 21.39368 45.72782
C 39.34113 21.39747 47.22782
C 39.33931 21.40125 48.72781
C 39.33201 21.41639 54.72779
C 39.33019 21.42017 56.22778
C 39.32836 21.42396 57.72777
C 39.31858 22.89348 45.72401
C 39.31676 22.89727 47.22400
C 39.31494 22.90105 48.72400
C 39.31311 22.90483 50.22399
C 39.31129 22.90862 51.72399
C 39.30947 22.91240 53.22398
C 39.30764 22.91619 54.72397
C 39.30582 22.91997 56.22397
C 39.30400 22.92376 57.72396
C 39.30217 22.92754 59.22396
C 39.29786 24.38571 42.72021
C 39.29604 24.38949 44.22020
C 39.29422 24.39328 45.72020
C 39.29239 24.39706 47.22019
C 39.29057 24.40085 48.72018
C 39.28874 24.40463 50.22018
C 39.28692 24.40842 51.72017
C 39.28510 24.41220 53.22017
C 39.28327 24.41598 54.72016
C 39.28145 24.41977 56.22015
C 39.27963 24.42355 57.72015
C 39.27780 24.42734 59.22014
C 39.27598 24.43112 60.72014
C 39.27532 25.88172 41.21640
C 39.27349 25.88551 42.71639
C 39.27167 25.88929 44.21639
C 39.26985 25.89308 45.71638
C 39.26802 25.89686 47.21638
C 39.26620 25.90064 48.71637
C 39.26438 25.90443 50.21636
C 39.26255 25.90821 51.71636
C 39.26073 25.91200 53.21635
C 39.25890 25.91578 54.71635
C 39.25708 25.91957 56.21634
C 39.25526 25.92335 57.71633
C 39.25343 25.92713 59.21633
C 39.25161 25.93092 60.71632
C 39.25095 27.38152 41.21259
C 39.24912 27.38531 42.71258
C 39.24730 27.38909 44.21257
C 39.24548 27.39287 45.71257
C 39.24365 27.39666 47.21256
C 39.24183 27.40044 48.71256
C 39.24001 27.40423 50.21255
C 39.23818 27.40801 51.71255
C 39.23636 27.41179 53.21254
C 39.23453 27.41558 54.71253
C 39.23271 27.41936 56.21253
C 39.23089 27.42315 57.71252
C 39.22906 27.42693 59.21252
C 39.22658 28.88132 41.20877
C 39.22476 28.88510 42.70877
C 39.22293 28.88889 44.20876
C 39.22111 28.89267 45.70876
C 39.21928 28.89645 47.20875
C 39.21746 28.90024 48.70874
C 39.21564 28.90402 50.20874
C 39.21381 28.90781 51.70873
C 39.21199 28.91159 53.20873
C 39.21017 28.91538 54.70872
C 39.20834 28.91916 56.20871
C 39.20652 28.92294 57.70871
C 39.20039 30.38490 42.70495
C 39.19856 30.38868 44.20495
C 39.19674 30.39247 45.70494
C 39.19491 30.39625 47.20494
C 39.19309 30.40004 48.70493
C 39.19127 30.40382 50.20492
C 39.18944 30.40760 51.70492
C 39.18762 30.41139 53.20491
C 39.18580 30.41517 54.70491
C 39.18397 30.41896 56.20490
C 39.18215 30.42274 57.70489
C 39.17055 31.89605 47.20112
C 39.16872 31.89983 48.70112
C 39.16690 31.90362 50.20111
C 39.16507 31.90740 51.70111
C 39.16325 31.91119 53.20110
C 39.16143 31.91497 54.70109
C 39.15960 31.91875 56.20109
C 39.14253 33.40341 50.19730
C 39.14070 33.40720 51.69729
C 40.84276 21.41806 45.72958
C 40.84093 21.42184 47.22958
C 40.83911 21.42563 48.72957
C 40.83728 21.42941 50.22957
C 40.82021 22.91407 44.22578
C 40.81839 22.91786 45.72577
C 40.81656 22.92164 47.22576
C 40.81474 22.92542 48.72576
C 40.81291 22.92921 50.22575
C 40.81109 22.93299 51.72575
C 40.80927 22.93678 53.22574
C 40.80744 22.94056 54.72574
C 40.80562 22.94435 56.22573
C 40.80380 22.94813 57.72572
C 40.79766 24.41008 42.72197
C 40.79584 24.41387 44.22196
C 40.79402 24.41765 45.72196
C 40.79219 24.42144 47.22195
C 40.79037 24.42522 48.72195
C 40.78855 24.42901 50.22194
C 40.78672 24.43279 51.72193
C 40.78490 24.43657 53.22193
C 40.78307 24.44036 54.72192
C 40.78125 24.44414 56.22192
C 40.77943 24.44793 57.72191
C 40.77760 24.45171 59.22190
C 40.77694 25.90231 39.71817
C 40.77512 25.90610 41.21816
C 40.77329 25.90988 42.71816
C 40.77147 25.91367 44.21815
C 40.76965 25.91745 45.71814
C 40.76782 25.92123 47.21814
C 40.76600 25.92502 48.71813
C 40.76418 25.92880 50.21813
C 40.76235 25.93259 51.71812
C 40.76053 25.93637 53.21811
C 40.75870 25.94016 54.71811
C 40.75688 25.94394 56.21810
C 40.75506 25.94772 57.71810
C 40.75323 25.95151 59.21809
C 40.75257 27.40211 39.71435
C 40.75075 27.40589 41.21435
C 40.74893 27.40968 42.71434
C 40.74710 27.41346 44.21434
C 40.74528 27.41725 45.71433
C 40.74345 27.42103 47.21432
C 40.74163 27.42482 48.71432
C 40.73981 27.42860 50.21431
C 40.73798 27.43238 51.71431
C 40.73616 27.43617 53.21430
C 40.73434 27.43995 54.71430
C 40.73251 27.44374 56.21429
C 40.73069 27.44752 57.71428
C 40.72886 27.45131 59.21428
C 40.72820 28.90191 39.71054
C 40.72638 28.90569 41.21053
C 40.72456 28.90948 42.71053
C 40.72273 28.91326 44.21052
C 40.72091 28.91704 45.71052
C 40.71908 28.92083 47.21051
C 40.71726 28.92461 48.71051
C 40.71544 28.92840 50.21050
C 40.71361 28.93218 51.71049
C 40.71179 28.93597 53.21049
C 40.70997 28.93975 54.71048
C 40.70814 28.94353 56.21048
C 40.70632 28.94732 57.71047
C 40.70383 30.40171 39.70673
C 40.70201 30.40549 41.20672
C 40.70019 30.40927 42.70672
C 40.69836 30.41306 44.20671
C 40.69654 30.41684 45.70670
C 40.69472 30.42063 47.20670
C 40.69289 30.42441 48.70669
C 40.69107 30.42819 50.20669
C 40.68924 30.43198 51.70668
C 40.68742 30.43576 53.20667
C 40.68560 30.43955 54.70667
C 40.68377 30.44333 56.20666
C 40.67582 31.90907 42.70290
C 40.66852 31.92421 48.70288
C 40.66670 31.92799 50.20287
C 40.66487 31.93178 51.70287
C 40.66305 31.93556 53.20286
C 40.66123 31.93934 54.70286
C 40.65940 31.94313 56.20285
C 42.34256 21.44243 45.73135
C 42.34073 21.44622 47.23134
C 42.33891 21.45000 48.73133
C 42.32001 22.93845 44.22754
C 42.31819 22.94223 45.72753
C 42.31636 22.94601 47.22753
C 42.31454 22.94980 48.72752
C 42.31272 22.95358 50.22751
C 42.31089 22.95737 51.72751
C 42.30294 24.42311 38.22375
C 42.30111 24.42689 39.72374
C 42.29929 24.43067 41.22374
C 42.29746 24.43446 42.72373
C 42.29564 24.43824 44.22373
C 42.29382 24.44203 45.72372
C 42.29199 24.44581 47.22371
C 42.29017 24.44960 48.72371
C 42.28835 24.45338 50.22370
C 42.28652 24.45716 51.72370
C 42.28470 24.46095 53.22369
C 42.28288 24.46473 54.72368
C 42.28105 24.46852 56.22368
C 42.27923 24.47230 57.72367
C 42.27857 25.92290 38.21994
C 42.27674 25.92669 39.71993
C 42.27492 25.93047 41.21992
C 42.27310 25.93426 42.71992
C 42.27127 25.93804 44.21991
C 42.26945 25.94182 45.71991
C 42.26762 25.94561 47.21990
C 42.26580 25.94939 48.71989
C 42.26398 25.95318 50.21989
C 42.26215 25.95696 51.71988
C 42.26033 25.96075 53.21988
C 42.25851 25.96453 54.71987
C 42.25668 25.96831 56.21986
C 42.25486 25.97210 57.71986
C 42.25420 27.42270 38.21612
C 42.25237 27.42648 39.71612
C 42.25055 27.43027 41.21611
C 42.24873 27.43405 42.71610
C 42.24690 27.43784 44.21610
C 42.24508 27.44162 45.71609
C 42.24326 27.44541 47.21609
C 42.24143 27.44919 48.71608
C 42.23961 27.45297 50.21607
C 42.23778 27.45676 51.71607
C 42.23596 27.46054 53.21606
C 42.23414 27.46433 54.71606
C 42.23231 27.46811 56.21605
C 42.23049 27.47189 57.71605
C 42.22983 28.92250 38.21231
C 42.22800 28.92628 39.71230
C 42.22618 28.93007 41.21230
C 42.22436 28.93385 42.71229
C 42.22253 28.93763 44.21229
C 42.22071 28.94142 45.71228
C 42.21889 28.94520 47.21227
C 42.21706 28.94899 48.71227
C 42.21524 28.95277 50.21226
C 42.21341 28.95656 51.71226
C 42.21159 28.96034 53.21225
C 42.20977 28.96412 54.71224
C 42.20794 28.96791 56.21224
C 42.20364 30.42608 39.70849
C 42.20181 30.42986 41.20848
C 42.19999 30.43365 42.70848
C 42.19816 30.43743 44.20847
C 42.19634 30.44122 45.70847
C 42.19452 30.44500 47.20846
C 42.19269 30.44878 48.70845
C 42.19087 30.45257 50.20845
C 42.18905 30.45635 51.70844
C 42.18722 30.46014 53.20844
C 42.18540 30.46392 54.70843
C 42.18357 30.46770 56.20842
C 42.17744 31.92966 41.20467
C 42.17562 31.93344 42.70466
C 42.17379 31.93723 44.20466
C 43.84236 21.46681 45.73311
C 43.84053 21.47059 47.23310
C 43.82528 22.95147 39.72932
C 43.82346 22.95525 41.22931
C 43.82164 22.95904 42.72931
C 43.81981 22.96282 44.22930
C 43.81799 22.96660 45.72929
C 43.81616 22.97039 47.22929
C 43.81434 22.97417 48.72928
C 43.81252 22.97796 50.22928
C 43.80274 24.44748 38.22551
C 43.80091 24.45126 39.72550
C 43.79909 24.45505 41.22550
C 43.79727 24.45883 42.72549
C 43.79544 24.46262 44.22549
C 43.79362 24.46640 45.72548
C 43.79179 24.47018 47.22548
C 43.78997 24.47397 48.72547
C 43.78815 24.47775 50.22546
C 43.78632 24.48154 51.72546
C 43.77837 25.94728 38.22170
C 43.77654 25.95106 39.72169
C 43.77472 25.95485 41.22169
C 43.77290 25.95863 42.72168
C 43.77107 25.96241 44.22167
C 43.76925 25.96620 45.72167
C 43.76743 25.96998 47.22166
C 43.76560 25.97377 48.72166
C 43.76378 25.97755 50.22165
C 43.76195 25.98133 51.72164
C 43.76013 25.98512 53.22164
C 43.75831 25.98890 54.72163
C 43.75400 27.44707 38.21788
C 43.75217 27.45086 39.71788
C 43.75035 27.45464 41.21787
C 43.74853 27.45843 42.71787
C 43.74670 27.46221 44.21786
C 43.74488 27.46600 45.71785
C 43.74306 27.46978 47.21785
C 43.74123 27.47356 48.71784
C 43.73941 27.47735 50.21784
C 43.73758 27.48113 51.71783
C 43.73576 27.48492 53.21783
C 43.73394 27.48870 54.71782
C 43.73211 27.49248 56.21781
C 43.72963 28.94687 38.21407
C 43.72781 28.95066 39.71406
C 43.72598 28.95444 41.21406
C 43.72416 28.95822 42.71405
C 43.72233 28.96201 44.21405
C 43.72051 28.96579 45.71404
C 43.71869 28.96958 47.21404
C 43.71686 28.97336 48.71403
C 43.71504 28.97714 50.21402
C 43.71322 28.98093 51.71402
C 43.71139 28.98471 53.21401
C 43.70957 28.98850 54.71401
C 43.70774 28.99228 56.21400
C 43.70526 30.44667 38.21026
C 43.70344 30.45045 39.71025
C 43.70161 30.45424 41.21025
C 43.69979 30.45802 42.71024
C 43.69796 30.46181 44.21023
C 43.69614 30.46559 45.71023
C 43.69249 30.47316 48.71022
C 43.69067 30.47694 50.21021
C 43.67724 31.95403 41.20643
C 43.67542 31.95782 42.70643
C 45.32508 22.97584 39.73108
C 45.32326 22.97962 41.23107
C 45.32144 22.98341 42.73107
C 45.31961 22.98719 44.23106
C 45.31779 22.99098 45.73106
C 45.31596 22.99476 47.23105
C 45.31414 22.99855 48.73104
C 45.30254 24.47185 38.22727
C 45.30071 24.47564 39.72727
C 45.29889 24.47942 41.22726
C 45.29707 24.48321 42.72726
C 45.29524 24.48699 44.22725
C 45.29342 24.49077 45.72724
C 45.29160 24.49456 47.22724
C 45.28977 24.49834 48.72723
C 45.28795 24.50213 50.22723
C 45.27817 25.97165 38.22346
C 45.27634 25.97544 39.72345
C 45.27452 25.97922 41.22345
C 45.27270 25.98300 42.72344
C 45.27087 25.98679 44.22344
C 45.26905 25.99057 45.72343
C 45.26723 25.99436 47.22342
C 45.26540 25.99814 48.72342
C 45.26358 26.00192 50.22341
C 45.25380 27.47145 38.21965
C 45.25198 27.47523 39.71964
C 45.25015 27.47902 41.21963
C 45.24833 27.48280 42.71963
C 45.24650 27.48658 44.21962
C 45.24468 27.49037 45.71962
C 45.24286 27.49415 47.21961
C 45.24103 27.49794 48.71960
C 45.22943 28.97125 38.21583
C 45.22761 28.97503 39.71583
C 45.22578 28.97881 41.21582
C 45.22396 28.98260 42.71582
C 45.22214 28.98638 44.21581
C 45.22031 28.99017 45.71580
C 45.21849 28.99395 47.21580
C 45.20506 30.47104 38.21202
C 45.20324 30.47483 39.71201
C 45.20141 30.47861 41.21201
C 45.19959 30.48239 42.71200
C 45.19777 30.48618 44.21200
C 45.17704 31.97841 41.20819
C 46.82306 23.00400 41.23284
C 46.81941 23.01157 44.23282
C 46.81759 23.01535 45.73282
C 46.81577 23.01914 47.23281
C 46.80234 24.49623 38.22903
C 46.80052 24.50001 39.72903
C 46.79869 24.50380 41.22902
C 46.79687 24.50758 42.72902
C 46.79504 24.51136 44.22901
C 46.79322 24.51515 45.72901
C 46.79140 24.51893 47.22900
C 46.78957 24.52272 48.72899
C 46.77797 25.99602 38.22522
C 46.77615 25.99981 39.72522
C 46.77432 26.00359 41.22521
C 46.77250 26.00738 42.72520
C 46.77067 26.01116 44.22520
C 46.76885 26.01495 45.72519
C 46.76703 26.01873 47.22519
C 46.76520 26.02251 48.72518
C 46.75360 27.49582 38.22141
C 46.75178 27.49961 39.72140
C 46.74995 27.50339 41.22140
C 46.74813 27.50717 42.72139
C 46.74631 27.51096 44.22138
C 46.74448 27.51474 45.72138
C 46.74266 27.51853 47.22137
C 46.72923 28.99562 38.21759
C 46.72741 28.99940 39.71759
C 46.72558 29.00319 41.21758
C 46.72376 29.00697 42.71758
C 46.72194 29.01076 44.21757
C 46.72011 29.01454 45.71757
C 46.70486 30.49542 38.21378
C 46.70304 30.49920 39.71378
C 46.70121 30.50298 41.21377
C 46.69939 30.50677 42.71376
C 48.30032 24.52439 39.73079
C 48.29849 24.52817 41.23078
C 48.29667 24.53195 42.73078
C 48.27777 26.02040 38.22698
C 48.27595 26.02418 39.72698
C 48.27412 26.02797 41.22697
C 48.27230 26.03175 42.72697
C 48.27048 26.03554 44.22696
C 48.26865 26.03932 45.72695
C 48.25340 27.52020 38.22317
C 48.25158 27.52398 39.72316
C 48.24975 27.52776 41.22316
C 48.24793 27.53155 42.72315
C 48.24611 27.53533 44.22315
C 48.22721 29.02378 39.71935
C 48.22538 29.02756 41.21934
C 48.22356 29.03135 42.71934
C 49.77392 26.05234 41.22873
C 49.74955 27.55214 41.22492
