52
comment
C 34.46000 22.66934 56.48029
C 35.03081 22.01509 57.73526
C 36.37461 22.62789 58.11919
C 40.73441 32.03581 50.48539
C 39.38458 31.99901 50.41732
C 39.92195 30.90755 52.33222
C 39.93729 30.25018 53.56828
C 41.14177 29.86437 54.16864
C 42.31982 30.29279 53.54515
C 42.31669 31.10482 52.40468
C 41.12110 31.33523 51.70544
C 38.94639 28.48012 56.69046
C 44.05173 28.81021 48.57868
C 44.46233 28.16335 47.39616
C 47.25980 29.22535 43.47094
C 48.39106 28.47126 42.77785
C 48.28538 29.04183 41.36647
C 44.86603 25.98262 37.57700
C 46.23459 27.86547 36.65791
C 40.30919 26.61627 43.28833
C 40.90192 26.62266 40.94371
C 42.37068 26.31138 41.21675
C 38.77145 23.33249 45.41065
C 39.28983 22.02065 45.99314
C 38.63969 24.51987 46.35386
C 37.27144 25.51712 48.19416
C 37.15480 26.98618 47.79779
C 36.08969 24.98518 48.99248
C 36.09153 24.68215 52.38035
C 35.92173 23.49646 53.10533
C 36.98794 22.68996 53.52117
C 38.28827 22.96212 53.05159
C 38.48334 24.12346 52.27785
C 37.40219 24.95928 51.97337
C 35.71168 30.07432 50.85732
C 36.36145 29.25795 51.94059
C 37.81647 28.01358 53.13305
C 39.74740 29.53669 47.17865
C 41.04726 29.87132 46.78059
C 37.66814 26.50683 59.01394
C 38.89634 31.26676 51.48157
C 43.87100 28.11165 49.73622
C 45.50674 26.75025 36.50900
C 46.10151 28.64438 37.74014
C 39.49259 23.64222 44.19250
C 39.55573 25.32527 46.50501
C 37.51760 24.63994 47.06729
C 37.08034 27.95424 48.82028
C 35.28331 25.85866 49.60016
C 39.32817 22.12471 53.33080
C 37.62133 28.66278 51.98296
C 36.70570 28.20790 53.86250
