52
comment
C 34.70467 22.55362 56.44447
C 35.31870 21.91606 57.68765
C 36.47388 22.64626 58.36675
C 40.78540 32.20513 50.43575
C 39.43345 32.19847 50.45043
C 40.01406 31.42805 52.51626
C 40.02824 30.94560 53.83049
C 41.28218 30.61941 54.36094
C 42.45733 30.76322 53.61367
C 42.39205 31.26754 52.30925
C 41.17419 31.66393 51.73378
C 38.96651 28.60872 56.97849
C 44.45024 28.73659 48.72611
C 44.42911 28.14014 47.44972
C 47.07726 29.05730 43.27594
C 48.09038 28.21562 42.50533
C 48.25490 28.98615 41.19845
C 44.27459 26.55618 37.67791
C 46.39908 27.41097 36.81346
C 40.77489 26.61774 43.40942
C 41.20368 26.70087 40.93176
C 42.71474 26.48795 40.92267
C 38.87040 23.15729 45.35290
C 39.45293 21.97358 46.11985
C 38.79746 24.36793 46.27248
C 37.21707 25.49238 47.80782
C 36.90787 26.88931 47.27696
C 36.17510 24.88142 48.73398
C 36.48099 24.30776 52.35229
C 36.33667 23.03762 52.92329
C 37.45115 22.19834 53.03983
C 38.73957 22.74851 52.88945
C 38.90014 24.06247 52.40668
C 37.75955 24.79280 52.05207
C 35.92992 29.99305 50.95339
C 36.28065 29.22418 52.19756
C 37.57030 28.16719 53.70794
C 39.93978 29.42164 46.73097
C 41.14749 29.59229 46.04364
C 37.40114 25.91812 59.11103
C 38.97097 31.73466 51.66625
C 44.37943 28.04522 49.89980
C 45.39828 26.52285 36.74168
C 46.71397 28.24632 37.81274
C 39.64004 23.47171 44.16610
C 39.81385 24.96395 46.62210
C 37.55785 24.63774 46.68835
C 36.84978 27.78821 48.36173
C 35.62637 25.61996 49.70140
C 39.87137 22.11364 53.30956
C 37.57591 28.87308 52.57483
C 36.27692 27.92408 53.97579
