52
comment
C 34.53208 22.77991 56.22905
C 35.28383 22.00555 57.30794
C 36.56693 22.57110 57.91003
C 40.69876 31.89825 50.34729
C 39.37736 31.61491 50.30674
C 40.14435 30.67117 52.22804
C 40.32792 29.90917 53.38813
C 41.60534 29.75857 53.94093
C 42.71620 30.32494 53.30431
C 42.49121 31.08572 52.15076
C 41.23365 31.28848 51.56013
C 39.42583 28.48633 56.69732
C 44.27537 28.76672 48.57334
C 44.39908 28.15214 47.31143
C 47.96921 29.18239 43.66012
C 48.90832 28.43339 42.71894
C 48.48307 28.97563 41.35739
C 44.40463 26.16716 38.23938
C 46.31177 27.39476 37.15858
C 38.85947 26.84277 43.30741
C 40.26867 26.84351 41.22568
C 41.60520 26.97743 41.94987
C 38.75953 23.40726 45.57082
C 39.43025 22.16062 46.14086
C 38.73218 24.57395 46.54806
C 37.29515 25.63555 48.36784
C 37.12904 27.09765 47.96335
C 36.07833 25.05882 49.07744
C 35.90271 24.43236 52.48619
C 35.58590 23.20572 53.08208
C 36.58969 22.31299 53.47645
C 37.93063 22.66497 53.22474
C 38.21001 23.77332 52.40081
C 37.18969 24.63069 51.97193
C 35.50388 30.05730 51.04313
C 36.06424 29.15659 52.10933
C 37.41546 28.06930 53.36453
C 40.00968 29.79456 46.99326
C 41.19032 30.00615 46.27119
C 37.71847 26.18280 58.72271
C 39.03212 30.92252 51.45070
C 44.01959 28.02095 49.68645
C 45.58712 26.29094 37.38687
C 46.11333 28.45193 37.95773
C 39.33380 23.66672 44.26591
C 39.73253 25.28067 46.65062
C 37.61320 24.77093 47.24927
C 36.85087 28.13708 48.87462
C 35.34319 25.88546 49.82491
C 38.93818 21.84961 53.64970
C 37.34131 28.59859 52.14118
C 36.26187 28.08936 54.05190
