52
comment
C 34.54336 22.10583 56.38792
C 35.03485 21.37216 57.63251
C 35.85001 22.21305 58.61085
C 41.01993 31.81805 50.51137
C 39.72005 31.44743 50.54311
C 40.58650 30.68833 52.51092
C 40.86450 30.07868 53.74024
C 42.13348 30.15947 54.32611
C 43.14425 30.80669 53.60531
C 42.86896 31.37480 52.35568
C 41.58611 31.38667 51.78506
C 40.02081 27.98025 56.99823
C 44.88855 29.16020 48.17004
C 45.00472 28.53873 46.91082
C 48.46738 29.52461 43.80754
C 49.40195 28.60430 43.02759
C 49.07885 29.05841 41.60698
C 44.96281 25.95431 38.52794
C 47.02641 27.02339 37.75179
C 40.63705 26.42108 43.94580
C 41.65347 26.60783 41.67346
C 42.97138 25.86219 41.86278
C 38.96290 22.90017 45.60274
C 39.60434 21.67103 46.24040
C 38.80254 24.04225 46.59605
C 37.52571 25.26785 48.36559
C 37.38886 26.63826 47.70827
C 36.36130 24.82538 49.24028
C 36.36787 24.64763 52.50994
C 36.20136 23.40331 53.12966
C 37.29399 22.58411 53.43817
C 38.59329 23.06377 53.17907
C 38.75761 24.33827 52.60112
C 37.65514 25.10130 52.19808
C 35.85568 29.89088 51.05628
C 36.46170 29.16909 52.22837
C 37.73135 27.85366 53.51275
C 40.02872 29.28248 46.96998
C 41.28790 29.54698 46.41808
C 37.20916 25.41479 59.28858
C 39.43591 30.90081 51.77912
C 44.56128 28.37101 49.23336
C 46.07662 26.09220 37.58945
C 47.06351 27.93218 38.73582
C 39.64188 23.35535 44.40624
C 39.84684 24.67349 46.74284
C 37.71124 24.27107 47.33032
C 37.29566 27.62940 48.70681
C 35.57392 25.74115 49.80933
C 39.70814 22.33715 53.47861
C 37.68268 28.50750 52.34984
C 36.60239 28.10339 54.19594
